
---------- Begin Simulation Statistics ----------
simSeconds                                   0.015603                       # Number of seconds simulated (Second)
simTicks                                  15603148000                       # Number of ticks simulated (Tick)
finalTick                                 15603148000                       # Number of ticks from beginning of simulation (restored from checkpoints and never reset) (Tick)
simFreq                                  1000000000000                       # The number of ticks per simulated second ((Tick/Second))
hostSeconds                                    178.07                       # Real time elapsed on the host (Second)
hostTickRate                                 87624116                       # The number of ticks simulated per host second (ticks/s) ((Tick/Second))
hostMemory                                     713556                       # Number of bytes of host memory used (Byte)
simInsts                                     50000000                       # Number of instructions simulated (Count)
simOps                                       83059022                       # Number of ops (including micro ops) simulated (Count)
hostInstRate                                   280790                       # Simulator instruction rate (inst/s) ((Count/Second))
hostOpRate                                     466442                       # Simulator op (including micro ops) rate (op/s) ((Count/Second))
system.clk_domain.clock                          1000                       # Clock period in ticks (Tick)
system.cpu.numCycles                         31206297                       # Number of cpu cycles simulated (Cycle)
system.cpu.numWorkItemsStarted                      0                       # Number of work items this cpu started (Count)
system.cpu.numWorkItemsCompleted                    0                       # Number of work items this cpu completed (Count)
system.cpu.instsAdded                       117007735                       # Number of instructions added to the IQ (excludes non-spec) (Count)
system.cpu.nonSpecInstsAdded                      756                       # Number of non-speculative instructions added to the IQ (Count)
system.cpu.instsIssued                      104018435                       # Number of instructions issued (Count)
system.cpu.squashedInstsIssued                  96659                       # Number of squashed instructions issued (Count)
system.cpu.squashedInstsExamined             33949402                       # Number of squashed instructions iterated over during squash; mainly for profiling (Count)
system.cpu.squashedOperandsExamined          49373467                       # Number of squashed operands that are examined and possibly removed from graph (Count)
system.cpu.squashedNonSpecRemoved                  60                       # Number of squashed non-spec instructions that were removed (Count)
system.cpu.numIssuedDist::samples            31013320                       # Number of insts issued each cycle (Count)
system.cpu.numIssuedDist::mean               3.353992                       # Number of insts issued each cycle (Count)
system.cpu.numIssuedDist::stdev              2.433229                       # Number of insts issued each cycle (Count)
system.cpu.numIssuedDist::underflows                0      0.00%      0.00% # Number of insts issued each cycle (Count)
system.cpu.numIssuedDist::0                   7296484     23.53%     23.53% # Number of insts issued each cycle (Count)
system.cpu.numIssuedDist::1                   1174848      3.79%     27.32% # Number of insts issued each cycle (Count)
system.cpu.numIssuedDist::2                   3100603     10.00%     37.31% # Number of insts issued each cycle (Count)
system.cpu.numIssuedDist::3                   3262406     10.52%     47.83% # Number of insts issued each cycle (Count)
system.cpu.numIssuedDist::4                   4967364     16.02%     63.85% # Number of insts issued each cycle (Count)
system.cpu.numIssuedDist::5                   4187949     13.50%     77.35% # Number of insts issued each cycle (Count)
system.cpu.numIssuedDist::6                   4007495     12.92%     90.27% # Number of insts issued each cycle (Count)
system.cpu.numIssuedDist::7                   2128376      6.86%     97.14% # Number of insts issued each cycle (Count)
system.cpu.numIssuedDist::8                    887795      2.86%    100.00% # Number of insts issued each cycle (Count)
system.cpu.numIssuedDist::overflows                 0      0.00%    100.00% # Number of insts issued each cycle (Count)
system.cpu.numIssuedDist::min_value                 0                       # Number of insts issued each cycle (Count)
system.cpu.numIssuedDist::max_value                 8                       # Number of insts issued each cycle (Count)
system.cpu.numIssuedDist::total              31013320                       # Number of insts issued each cycle (Count)
system.cpu.statFuBusy::No_OpClass                   0      0.00%      0.00% # attempts to use FU when none available (Count)
system.cpu.statFuBusy::IntAlu                 1379566     93.22%     93.22% # attempts to use FU when none available (Count)
system.cpu.statFuBusy::IntMult                      0      0.00%     93.22% # attempts to use FU when none available (Count)
system.cpu.statFuBusy::IntDiv                       0      0.00%     93.22% # attempts to use FU when none available (Count)
system.cpu.statFuBusy::FloatAdd                     0      0.00%     93.22% # attempts to use FU when none available (Count)
system.cpu.statFuBusy::FloatCmp                     0      0.00%     93.22% # attempts to use FU when none available (Count)
system.cpu.statFuBusy::FloatCvt                     0      0.00%     93.22% # attempts to use FU when none available (Count)
system.cpu.statFuBusy::FloatMult                    0      0.00%     93.22% # attempts to use FU when none available (Count)
system.cpu.statFuBusy::FloatMultAcc                 0      0.00%     93.22% # attempts to use FU when none available (Count)
system.cpu.statFuBusy::FloatDiv                     0      0.00%     93.22% # attempts to use FU when none available (Count)
system.cpu.statFuBusy::FloatMisc                    0      0.00%     93.22% # attempts to use FU when none available (Count)
system.cpu.statFuBusy::FloatSqrt                    0      0.00%     93.22% # attempts to use FU when none available (Count)
system.cpu.statFuBusy::SimdAdd                      3      0.00%     93.22% # attempts to use FU when none available (Count)
system.cpu.statFuBusy::SimdAddAcc                   0      0.00%     93.22% # attempts to use FU when none available (Count)
system.cpu.statFuBusy::SimdAlu                  80332      5.43%     98.65% # attempts to use FU when none available (Count)
system.cpu.statFuBusy::SimdCmp                      0      0.00%     98.65% # attempts to use FU when none available (Count)
system.cpu.statFuBusy::SimdCvt                   1044      0.07%     98.72% # attempts to use FU when none available (Count)
system.cpu.statFuBusy::SimdMisc                    38      0.00%     98.72% # attempts to use FU when none available (Count)
system.cpu.statFuBusy::SimdMult                     0      0.00%     98.72% # attempts to use FU when none available (Count)
system.cpu.statFuBusy::SimdMultAcc                  0      0.00%     98.72% # attempts to use FU when none available (Count)
system.cpu.statFuBusy::SimdShift                   89      0.01%     98.73% # attempts to use FU when none available (Count)
system.cpu.statFuBusy::SimdShiftAcc                 0      0.00%     98.73% # attempts to use FU when none available (Count)
system.cpu.statFuBusy::SimdDiv                      0      0.00%     98.73% # attempts to use FU when none available (Count)
system.cpu.statFuBusy::SimdSqrt                     0      0.00%     98.73% # attempts to use FU when none available (Count)
system.cpu.statFuBusy::SimdFloatAdd                 0      0.00%     98.73% # attempts to use FU when none available (Count)
system.cpu.statFuBusy::SimdFloatAlu                 0      0.00%     98.73% # attempts to use FU when none available (Count)
system.cpu.statFuBusy::SimdFloatCmp                 0      0.00%     98.73% # attempts to use FU when none available (Count)
system.cpu.statFuBusy::SimdFloatCvt                 0      0.00%     98.73% # attempts to use FU when none available (Count)
system.cpu.statFuBusy::SimdFloatDiv                 0      0.00%     98.73% # attempts to use FU when none available (Count)
system.cpu.statFuBusy::SimdFloatMisc                0      0.00%     98.73% # attempts to use FU when none available (Count)
system.cpu.statFuBusy::SimdFloatMult                0      0.00%     98.73% # attempts to use FU when none available (Count)
system.cpu.statFuBusy::SimdFloatMultAcc             0      0.00%     98.73% # attempts to use FU when none available (Count)
system.cpu.statFuBusy::SimdFloatSqrt                0      0.00%     98.73% # attempts to use FU when none available (Count)
system.cpu.statFuBusy::SimdReduceAdd                0      0.00%     98.73% # attempts to use FU when none available (Count)
system.cpu.statFuBusy::SimdReduceAlu                0      0.00%     98.73% # attempts to use FU when none available (Count)
system.cpu.statFuBusy::SimdReduceCmp                0      0.00%     98.73% # attempts to use FU when none available (Count)
system.cpu.statFuBusy::SimdFloatReduceAdd            0      0.00%     98.73% # attempts to use FU when none available (Count)
system.cpu.statFuBusy::SimdFloatReduceCmp            0      0.00%     98.73% # attempts to use FU when none available (Count)
system.cpu.statFuBusy::SimdAes                      0      0.00%     98.73% # attempts to use FU when none available (Count)
system.cpu.statFuBusy::SimdAesMix                   0      0.00%     98.73% # attempts to use FU when none available (Count)
system.cpu.statFuBusy::SimdSha1Hash                 0      0.00%     98.73% # attempts to use FU when none available (Count)
system.cpu.statFuBusy::SimdSha1Hash2                0      0.00%     98.73% # attempts to use FU when none available (Count)
system.cpu.statFuBusy::SimdSha256Hash               0      0.00%     98.73% # attempts to use FU when none available (Count)
system.cpu.statFuBusy::SimdSha256Hash2              0      0.00%     98.73% # attempts to use FU when none available (Count)
system.cpu.statFuBusy::SimdShaSigma2                0      0.00%     98.73% # attempts to use FU when none available (Count)
system.cpu.statFuBusy::SimdShaSigma3                0      0.00%     98.73% # attempts to use FU when none available (Count)
system.cpu.statFuBusy::SimdPredAlu                  0      0.00%     98.73% # attempts to use FU when none available (Count)
system.cpu.statFuBusy::MemRead                  10545      0.71%     99.44% # attempts to use FU when none available (Count)
system.cpu.statFuBusy::MemWrite                  7474      0.51%     99.95% # attempts to use FU when none available (Count)
system.cpu.statFuBusy::FloatMemRead               533      0.04%     99.98% # attempts to use FU when none available (Count)
system.cpu.statFuBusy::FloatMemWrite              280      0.02%    100.00% # attempts to use FU when none available (Count)
system.cpu.statFuBusy::IprAccess                    0      0.00%    100.00% # attempts to use FU when none available (Count)
system.cpu.statFuBusy::InstPrefetch                 0      0.00%    100.00% # attempts to use FU when none available (Count)
system.cpu.statIssuedInstType_0::No_OpClass       811108      0.78%      0.78% # Number of instructions issued per FU type, per thread (Count)
system.cpu.statIssuedInstType_0::IntAlu      78964045     75.91%     76.69% # Number of instructions issued per FU type, per thread (Count)
system.cpu.statIssuedInstType_0::IntMult         1300      0.00%     76.69% # Number of instructions issued per FU type, per thread (Count)
system.cpu.statIssuedInstType_0::IntDiv         40757      0.04%     76.73% # Number of instructions issued per FU type, per thread (Count)
system.cpu.statIssuedInstType_0::FloatAdd      1482260      1.42%     78.16% # Number of instructions issued per FU type, per thread (Count)
system.cpu.statIssuedInstType_0::FloatCmp            0      0.00%     78.16% # Number of instructions issued per FU type, per thread (Count)
system.cpu.statIssuedInstType_0::FloatCvt         1272      0.00%     78.16% # Number of instructions issued per FU type, per thread (Count)
system.cpu.statIssuedInstType_0::FloatMult            0      0.00%     78.16% # Number of instructions issued per FU type, per thread (Count)
system.cpu.statIssuedInstType_0::FloatMultAcc            0      0.00%     78.16% # Number of instructions issued per FU type, per thread (Count)
system.cpu.statIssuedInstType_0::FloatDiv            0      0.00%     78.16% # Number of instructions issued per FU type, per thread (Count)
system.cpu.statIssuedInstType_0::FloatMisc            0      0.00%     78.16% # Number of instructions issued per FU type, per thread (Count)
system.cpu.statIssuedInstType_0::FloatSqrt            0      0.00%     78.16% # Number of instructions issued per FU type, per thread (Count)
system.cpu.statIssuedInstType_0::SimdAdd         8167      0.01%     78.17% # Number of instructions issued per FU type, per thread (Count)
system.cpu.statIssuedInstType_0::SimdAddAcc            0      0.00%     78.17% # Number of instructions issued per FU type, per thread (Count)
system.cpu.statIssuedInstType_0::SimdAlu      2967931      2.85%     81.02% # Number of instructions issued per FU type, per thread (Count)
system.cpu.statIssuedInstType_0::SimdCmp           44      0.00%     81.02% # Number of instructions issued per FU type, per thread (Count)
system.cpu.statIssuedInstType_0::SimdCvt        18268      0.02%     81.04% # Number of instructions issued per FU type, per thread (Count)
system.cpu.statIssuedInstType_0::SimdMisc       752747      0.72%     81.76% # Number of instructions issued per FU type, per thread (Count)
system.cpu.statIssuedInstType_0::SimdMult            0      0.00%     81.76% # Number of instructions issued per FU type, per thread (Count)
system.cpu.statIssuedInstType_0::SimdMultAcc            0      0.00%     81.76% # Number of instructions issued per FU type, per thread (Count)
system.cpu.statIssuedInstType_0::SimdShift         2965      0.00%     81.77% # Number of instructions issued per FU type, per thread (Count)
system.cpu.statIssuedInstType_0::SimdShiftAcc            0      0.00%     81.77% # Number of instructions issued per FU type, per thread (Count)
system.cpu.statIssuedInstType_0::SimdDiv            0      0.00%     81.77% # Number of instructions issued per FU type, per thread (Count)
system.cpu.statIssuedInstType_0::SimdSqrt            0      0.00%     81.77% # Number of instructions issued per FU type, per thread (Count)
system.cpu.statIssuedInstType_0::SimdFloatAdd      1473808      1.42%     83.18% # Number of instructions issued per FU type, per thread (Count)
system.cpu.statIssuedInstType_0::SimdFloatAlu            0      0.00%     83.18% # Number of instructions issued per FU type, per thread (Count)
system.cpu.statIssuedInstType_0::SimdFloatCmp            0      0.00%     83.18% # Number of instructions issued per FU type, per thread (Count)
system.cpu.statIssuedInstType_0::SimdFloatCvt      2947573      2.83%     86.02% # Number of instructions issued per FU type, per thread (Count)
system.cpu.statIssuedInstType_0::SimdFloatDiv            0      0.00%     86.02% # Number of instructions issued per FU type, per thread (Count)
system.cpu.statIssuedInstType_0::SimdFloatMisc            0      0.00%     86.02% # Number of instructions issued per FU type, per thread (Count)
system.cpu.statIssuedInstType_0::SimdFloatMult       736883      0.71%     86.72% # Number of instructions issued per FU type, per thread (Count)
system.cpu.statIssuedInstType_0::SimdFloatMultAcc            0      0.00%     86.72% # Number of instructions issued per FU type, per thread (Count)
system.cpu.statIssuedInstType_0::SimdFloatSqrt            0      0.00%     86.72% # Number of instructions issued per FU type, per thread (Count)
system.cpu.statIssuedInstType_0::SimdReduceAdd            0      0.00%     86.72% # Number of instructions issued per FU type, per thread (Count)
system.cpu.statIssuedInstType_0::SimdReduceAlu            0      0.00%     86.72% # Number of instructions issued per FU type, per thread (Count)
system.cpu.statIssuedInstType_0::SimdReduceCmp            0      0.00%     86.72% # Number of instructions issued per FU type, per thread (Count)
system.cpu.statIssuedInstType_0::SimdFloatReduceAdd            0      0.00%     86.72% # Number of instructions issued per FU type, per thread (Count)
system.cpu.statIssuedInstType_0::SimdFloatReduceCmp            0      0.00%     86.72% # Number of instructions issued per FU type, per thread (Count)
system.cpu.statIssuedInstType_0::SimdAes            0      0.00%     86.72% # Number of instructions issued per FU type, per thread (Count)
system.cpu.statIssuedInstType_0::SimdAesMix            0      0.00%     86.72% # Number of instructions issued per FU type, per thread (Count)
system.cpu.statIssuedInstType_0::SimdSha1Hash            0      0.00%     86.72% # Number of instructions issued per FU type, per thread (Count)
system.cpu.statIssuedInstType_0::SimdSha1Hash2            0      0.00%     86.72% # Number of instructions issued per FU type, per thread (Count)
system.cpu.statIssuedInstType_0::SimdSha256Hash            0      0.00%     86.72% # Number of instructions issued per FU type, per thread (Count)
system.cpu.statIssuedInstType_0::SimdSha256Hash2            0      0.00%     86.72% # Number of instructions issued per FU type, per thread (Count)
system.cpu.statIssuedInstType_0::SimdShaSigma2            0      0.00%     86.72% # Number of instructions issued per FU type, per thread (Count)
system.cpu.statIssuedInstType_0::SimdShaSigma3            0      0.00%     86.72% # Number of instructions issued per FU type, per thread (Count)
system.cpu.statIssuedInstType_0::SimdPredAlu            0      0.00%     86.72% # Number of instructions issued per FU type, per thread (Count)
system.cpu.statIssuedInstType_0::MemRead      7787269      7.49%     94.21% # Number of instructions issued per FU type, per thread (Count)
system.cpu.statIssuedInstType_0::MemWrite      3032406      2.92%     97.13% # Number of instructions issued per FU type, per thread (Count)
system.cpu.statIssuedInstType_0::FloatMemRead      2973935      2.86%     99.98% # Number of instructions issued per FU type, per thread (Count)
system.cpu.statIssuedInstType_0::FloatMemWrite        15697      0.02%    100.00% # Number of instructions issued per FU type, per thread (Count)
system.cpu.statIssuedInstType_0::IprAccess            0      0.00%    100.00% # Number of instructions issued per FU type, per thread (Count)
system.cpu.statIssuedInstType_0::InstPrefetch            0      0.00%    100.00% # Number of instructions issued per FU type, per thread (Count)
system.cpu.statIssuedInstType_0::total      104018435                       # Number of instructions issued per FU type, per thread (Count)
system.cpu.issueRate                         3.333251                       # Inst issue rate ((Count/Cycle))
system.cpu.fuBusy                             1479904                       # FU busy when requested (Count)
system.cpu.fuBusyRate                        0.014227                       # FU busy rate (busy events/executed inst) ((Count/Count))
system.cpu.intInstQueueReads                213772624                       # Number of integer instruction queue reads (Count)
system.cpu.intInstQueueWrites               137507188                       # Number of integer instruction queue writes (Count)
system.cpu.intInstQueueWakeupAccesses        89142194                       # Number of integer instruction queue wakeup accesses (Count)
system.cpu.fpInstQueueReads                  26854126                       # Number of floating instruction queue reads (Count)
system.cpu.fpInstQueueWrites                 13451241                       # Number of floating instruction queue writes (Count)
system.cpu.fpInstQueueWakeupAccesses         13379853                       # Number of floating instruction queue wakeup accesses (Count)
system.cpu.vecInstQueueReads                        0                       # Number of vector instruction queue reads (Count)
system.cpu.vecInstQueueWrites                       0                       # Number of vector instruction queue writes (Count)
system.cpu.vecInstQueueWakeupAccesses               0                       # Number of vector instruction queue wakeup accesses (Count)
system.cpu.intAluAccesses                    91219119                       # Number of integer alu accesses (Count)
system.cpu.fpAluAccesses                     13468112                       # Number of floating point alu accesses (Count)
system.cpu.vecAluAccesses                           0                       # Number of vector alu accesses (Count)
system.cpu.numInsts                         103047471                       # Number of executed instructions (Count)
system.cpu.numLoadInsts                      10638862                       # Number of load instructions executed (Count)
system.cpu.numSquashedInsts                    970961                       # Number of squashed instructions skipped in execute (Count)
system.cpu.numSwp                                   0                       # Number of swp insts executed (Count)
system.cpu.numNop                                   0                       # Number of nop insts executed (Count)
system.cpu.numRefs                           13684244                       # Number of memory reference insts executed (Count)
system.cpu.numBranches                        8459050                       # Number of branches executed (Count)
system.cpu.numStoreInsts                      3045382                       # Number of stores executed (Count)
system.cpu.numRate                           3.302137                       # Inst execution rate ((Count/Cycle))
system.cpu.timesIdled                            2375                       # Number of times that the entire CPU went into an idle state and unscheduled itself (Count)
system.cpu.idleCycles                          192977                       # Total number of cycles that the CPU has spent unscheduled due to idling (Cycle)
system.cpu.committedInsts                    50000000                       # Number of Instructions Simulated (Count)
system.cpu.committedOps                      83059022                       # Number of Ops (including micro ops) Simulated (Count)
system.cpu.cpi                               0.624126                       # CPI: Cycles Per Instruction ((Cycle/Count))
system.cpu.totalCpi                          0.624126                       # CPI: Total CPI of All Threads ((Cycle/Count))
system.cpu.ipc                               1.602241                       # IPC: Instructions Per Cycle ((Count/Cycle))
system.cpu.totalIpc                          1.602241                       # IPC: Total IPC of All Threads ((Count/Cycle))
system.cpu.intRegfileReads                  133673306                       # Number of integer regfile reads (Count)
system.cpu.intRegfileWrites                  77053133                       # Number of integer regfile writes (Count)
system.cpu.fpRegfileReads                    19322965                       # Number of floating regfile reads (Count)
system.cpu.fpRegfileWrites                   11144248                       # Number of floating regfile writes (Count)
system.cpu.ccRegfileReads                    62708337                       # number of cc regfile reads (Count)
system.cpu.ccRegfileWrites                   54862544                       # number of cc regfile writes (Count)
system.cpu.miscRegfileReads                  34042412                       # number of misc regfile reads (Count)
system.cpu.miscRegfileWrites                      684                       # number of misc regfile writes (Count)
system.cpu.MemDepUnit__0.insertedLoads       10796413                       # Number of loads inserted to the mem dependence unit. (Count)
system.cpu.MemDepUnit__0.insertedStores       4184126                       # Number of stores inserted to the mem dependence unit. (Count)
system.cpu.MemDepUnit__0.conflictingLoads        25146                       # Number of conflicting loads. (Count)
system.cpu.MemDepUnit__0.conflictingStores      1352588                       # Number of conflicting stores. (Count)
system.cpu.MemDepUnit__1.insertedLoads              0                       # Number of loads inserted to the mem dependence unit. (Count)
system.cpu.MemDepUnit__1.insertedStores             0                       # Number of stores inserted to the mem dependence unit. (Count)
system.cpu.MemDepUnit__1.conflictingLoads            0                       # Number of conflicting loads. (Count)
system.cpu.MemDepUnit__1.conflictingStores            0                       # Number of conflicting stores. (Count)
system.cpu.MemDepUnit__2.insertedLoads              0                       # Number of loads inserted to the mem dependence unit. (Count)
system.cpu.MemDepUnit__2.insertedStores             0                       # Number of stores inserted to the mem dependence unit. (Count)
system.cpu.MemDepUnit__2.conflictingLoads            0                       # Number of conflicting loads. (Count)
system.cpu.MemDepUnit__2.conflictingStores            0                       # Number of conflicting stores. (Count)
system.cpu.MemDepUnit__3.insertedLoads              0                       # Number of loads inserted to the mem dependence unit. (Count)
system.cpu.MemDepUnit__3.insertedStores             0                       # Number of stores inserted to the mem dependence unit. (Count)
system.cpu.MemDepUnit__3.conflictingLoads            0                       # Number of conflicting loads. (Count)
system.cpu.MemDepUnit__3.conflictingStores            0                       # Number of conflicting stores. (Count)
system.cpu.branchPred.lookups                10832444                       # Number of BP lookups (Count)
system.cpu.branchPred.condPredicted           9147017                       # Number of conditional branches predicted (Count)
system.cpu.branchPred.condIncorrect            437083                       # Number of conditional branches incorrect (Count)
system.cpu.branchPred.BTBLookups              5633262                       # Number of BTB lookups (Count)
system.cpu.branchPred.BTBHits                 5629257                       # Number of BTB hits (Count)
system.cpu.branchPred.BTBHitRatio            0.999289                       # BTB Hit Ratio (Ratio)
system.cpu.branchPred.RASUsed                  798142                       # Number of times the RAS was used to get a target. (Count)
system.cpu.branchPred.RASIncorrect                 16                       # Number of incorrect RAS predictions. (Count)
system.cpu.branchPred.indirectLookups           12743                       # Number of indirect predictor lookups. (Count)
system.cpu.branchPred.indirectHits               5738                       # Number of indirect target hits. (Count)
system.cpu.branchPred.indirectMisses             7005                       # Number of indirect misses. (Count)
system.cpu.branchPred.indirectMispredicted         1510                       # Number of mispredicted indirect branches. (Count)
system.cpu.commit.commitSquashedInsts        33937908                       # The number of squashed insts skipped by commit (Count)
system.cpu.commit.commitNonSpecStalls             696                       # The number of times commit has been forced to stall to communicate backwards (Count)
system.cpu.commit.branchMispredicts            436575                       # The number of times a branch was mispredicted (Count)
system.cpu.commit.numCommittedDist::samples     26600656                       # Number of insts commited each cycle (Count)
system.cpu.commit.numCommittedDist::mean     3.122443                       # Number of insts commited each cycle (Count)
system.cpu.commit.numCommittedDist::stdev     2.852978                       # Number of insts commited each cycle (Count)
system.cpu.commit.numCommittedDist::underflows            0      0.00%      0.00% # Number of insts commited each cycle (Count)
system.cpu.commit.numCommittedDist::0         4601845     17.30%     17.30% # Number of insts commited each cycle (Count)
system.cpu.commit.numCommittedDist::1         6554230     24.64%     41.94% # Number of insts commited each cycle (Count)
system.cpu.commit.numCommittedDist::2         2845211     10.70%     52.64% # Number of insts commited each cycle (Count)
system.cpu.commit.numCommittedDist::3         3624138     13.62%     66.26% # Number of insts commited each cycle (Count)
system.cpu.commit.numCommittedDist::4         1831232      6.88%     73.14% # Number of insts commited each cycle (Count)
system.cpu.commit.numCommittedDist::5          911674      3.43%     76.57% # Number of insts commited each cycle (Count)
system.cpu.commit.numCommittedDist::6          674581      2.54%     79.11% # Number of insts commited each cycle (Count)
system.cpu.commit.numCommittedDist::7          450788      1.69%     80.80% # Number of insts commited each cycle (Count)
system.cpu.commit.numCommittedDist::8         5106957     19.20%    100.00% # Number of insts commited each cycle (Count)
system.cpu.commit.numCommittedDist::overflows            0      0.00%    100.00% # Number of insts commited each cycle (Count)
system.cpu.commit.numCommittedDist::min_value            0                       # Number of insts commited each cycle (Count)
system.cpu.commit.numCommittedDist::max_value            8                       # Number of insts commited each cycle (Count)
system.cpu.commit.numCommittedDist::total     26600656                       # Number of insts commited each cycle (Count)
system.cpu.commit.instsCommitted             50000000                       # Number of instructions committed (Count)
system.cpu.commit.opsCommitted               83059022                       # Number of ops (including micro ops) committed (Count)
system.cpu.commit.memRefs                    10627212                       # Number of memory references committed (Count)
system.cpu.commit.loads                       8079024                       # Number of loads committed (Count)
system.cpu.commit.amos                              0                       # Number of atomic instructions committed (Count)
system.cpu.commit.membars                           8                       # Number of memory barriers committed (Count)
system.cpu.commit.branches                    7139673                       # Number of branches committed (Count)
system.cpu.commit.vectorInstructions                0                       # Number of committed Vector instructions. (Count)
system.cpu.commit.floating                   13359227                       # Number of committed floating point instructions. (Count)
system.cpu.commit.integer                    72660404                       # Number of committed integer instructions. (Count)
system.cpu.commit.functionCalls                749175                       # Number of function calls committed. (Count)
system.cpu.commit.committedInstType_0::No_OpClass       754632      0.91%      0.91% # Class of committed instruction (Count)
system.cpu.commit.committedInstType_0::IntAlu     61262370     73.76%     74.67% # Class of committed instruction (Count)
system.cpu.commit.committedInstType_0::IntMult         1284      0.00%     74.67% # Class of committed instruction (Count)
system.cpu.commit.committedInstType_0::IntDiv        38087      0.05%     74.71% # Class of committed instruction (Count)
system.cpu.commit.committedInstType_0::FloatAdd      1479653      1.78%     76.50% # Class of committed instruction (Count)
system.cpu.commit.committedInstType_0::FloatCmp            0      0.00%     76.50% # Class of committed instruction (Count)
system.cpu.commit.committedInstType_0::FloatCvt         1216      0.00%     76.50% # Class of committed instruction (Count)
system.cpu.commit.committedInstType_0::FloatMult            0      0.00%     76.50% # Class of committed instruction (Count)
system.cpu.commit.committedInstType_0::FloatMultAcc            0      0.00%     76.50% # Class of committed instruction (Count)
system.cpu.commit.committedInstType_0::FloatDiv            0      0.00%     76.50% # Class of committed instruction (Count)
system.cpu.commit.committedInstType_0::FloatMisc            0      0.00%     76.50% # Class of committed instruction (Count)
system.cpu.commit.committedInstType_0::FloatSqrt            0      0.00%     76.50% # Class of committed instruction (Count)
system.cpu.commit.committedInstType_0::SimdAdd         7354      0.01%     76.51% # Class of committed instruction (Count)
system.cpu.commit.committedInstType_0::SimdAddAcc            0      0.00%     76.51% # Class of committed instruction (Count)
system.cpu.commit.committedInstType_0::SimdAlu      2961575      3.57%     80.07% # Class of committed instruction (Count)
system.cpu.commit.committedInstType_0::SimdCmp           42      0.00%     80.07% # Class of committed instruction (Count)
system.cpu.commit.committedInstType_0::SimdCvt        15556      0.02%     80.09% # Class of committed instruction (Count)
system.cpu.commit.committedInstType_0::SimdMisc       750547      0.90%     80.99% # Class of committed instruction (Count)
system.cpu.commit.committedInstType_0::SimdMult            0      0.00%     80.99% # Class of committed instruction (Count)
system.cpu.commit.committedInstType_0::SimdMultAcc            0      0.00%     80.99% # Class of committed instruction (Count)
system.cpu.commit.committedInstType_0::SimdShift         1317      0.00%     80.99% # Class of committed instruction (Count)
system.cpu.commit.committedInstType_0::SimdShiftAcc            0      0.00%     80.99% # Class of committed instruction (Count)
system.cpu.commit.committedInstType_0::SimdDiv            0      0.00%     80.99% # Class of committed instruction (Count)
system.cpu.commit.committedInstType_0::SimdSqrt            0      0.00%     80.99% # Class of committed instruction (Count)
system.cpu.commit.committedInstType_0::SimdFloatAdd      1473765      1.77%     82.77% # Class of committed instruction (Count)
system.cpu.commit.committedInstType_0::SimdFloatAlu            0      0.00%     82.77% # Class of committed instruction (Count)
system.cpu.commit.committedInstType_0::SimdFloatCmp            0      0.00%     82.77% # Class of committed instruction (Count)
system.cpu.commit.committedInstType_0::SimdFloatCvt      2947529      3.55%     86.32% # Class of committed instruction (Count)
system.cpu.commit.committedInstType_0::SimdFloatDiv            0      0.00%     86.32% # Class of committed instruction (Count)
system.cpu.commit.committedInstType_0::SimdFloatMisc            0      0.00%     86.32% # Class of committed instruction (Count)
system.cpu.commit.committedInstType_0::SimdFloatMult       736883      0.89%     87.21% # Class of committed instruction (Count)
system.cpu.commit.committedInstType_0::SimdFloatMultAcc            0      0.00%     87.21% # Class of committed instruction (Count)
system.cpu.commit.committedInstType_0::SimdFloatSqrt            0      0.00%     87.21% # Class of committed instruction (Count)
system.cpu.commit.committedInstType_0::SimdReduceAdd            0      0.00%     87.21% # Class of committed instruction (Count)
system.cpu.commit.committedInstType_0::SimdReduceAlu            0      0.00%     87.21% # Class of committed instruction (Count)
system.cpu.commit.committedInstType_0::SimdReduceCmp            0      0.00%     87.21% # Class of committed instruction (Count)
system.cpu.commit.committedInstType_0::SimdFloatReduceAdd            0      0.00%     87.21% # Class of committed instruction (Count)
system.cpu.commit.committedInstType_0::SimdFloatReduceCmp            0      0.00%     87.21% # Class of committed instruction (Count)
system.cpu.commit.committedInstType_0::SimdAes            0      0.00%     87.21% # Class of committed instruction (Count)
system.cpu.commit.committedInstType_0::SimdAesMix            0      0.00%     87.21% # Class of committed instruction (Count)
system.cpu.commit.committedInstType_0::SimdSha1Hash            0      0.00%     87.21% # Class of committed instruction (Count)
system.cpu.commit.committedInstType_0::SimdSha1Hash2            0      0.00%     87.21% # Class of committed instruction (Count)
system.cpu.commit.committedInstType_0::SimdSha256Hash            0      0.00%     87.21% # Class of committed instruction (Count)
system.cpu.commit.committedInstType_0::SimdSha256Hash2            0      0.00%     87.21% # Class of committed instruction (Count)
system.cpu.commit.committedInstType_0::SimdShaSigma2            0      0.00%     87.21% # Class of committed instruction (Count)
system.cpu.commit.committedInstType_0::SimdShaSigma3            0      0.00%     87.21% # Class of committed instruction (Count)
system.cpu.commit.committedInstType_0::SimdPredAlu            0      0.00%     87.21% # Class of committed instruction (Count)
system.cpu.commit.committedInstType_0::MemRead      5112583      6.16%     93.36% # Class of committed instruction (Count)
system.cpu.commit.committedInstType_0::MemWrite      2534198      3.05%     96.41% # Class of committed instruction (Count)
system.cpu.commit.committedInstType_0::FloatMemRead      2966441      3.57%     99.98% # Class of committed instruction (Count)
system.cpu.commit.committedInstType_0::FloatMemWrite        13990      0.02%    100.00% # Class of committed instruction (Count)
system.cpu.commit.committedInstType_0::IprAccess            0      0.00%    100.00% # Class of committed instruction (Count)
system.cpu.commit.committedInstType_0::InstPrefetch            0      0.00%    100.00% # Class of committed instruction (Count)
system.cpu.commit.committedInstType_0::total     83059022                       # Class of committed instruction (Count)
system.cpu.commit.commitEligibleSamples       5106957                       # number cycles where commit BW limit reached (Cycle)
system.cpu.dcache.demandHits::cpu.data       11614206                       # number of demand (read+write) hits (Count)
system.cpu.dcache.demandHits::total          11614206                       # number of demand (read+write) hits (Count)
system.cpu.dcache.overallHits::cpu.data      11614206                       # number of overall hits (Count)
system.cpu.dcache.overallHits::total         11614206                       # number of overall hits (Count)
system.cpu.dcache.demandMisses::cpu.data        78464                       # number of demand (read+write) misses (Count)
system.cpu.dcache.demandMisses::total           78464                       # number of demand (read+write) misses (Count)
system.cpu.dcache.overallMisses::cpu.data        78464                       # number of overall misses (Count)
system.cpu.dcache.overallMisses::total          78464                       # number of overall misses (Count)
system.cpu.dcache.demandMissLatency::cpu.data   4674573991                       # number of demand (read+write) miss ticks (Tick)
system.cpu.dcache.demandMissLatency::total   4674573991                       # number of demand (read+write) miss ticks (Tick)
system.cpu.dcache.overallMissLatency::cpu.data   4674573991                       # number of overall miss ticks (Tick)
system.cpu.dcache.overallMissLatency::total   4674573991                       # number of overall miss ticks (Tick)
system.cpu.dcache.demandAccesses::cpu.data     11692670                       # number of demand (read+write) accesses (Count)
system.cpu.dcache.demandAccesses::total      11692670                       # number of demand (read+write) accesses (Count)
system.cpu.dcache.overallAccesses::cpu.data     11692670                       # number of overall (read+write) accesses (Count)
system.cpu.dcache.overallAccesses::total     11692670                       # number of overall (read+write) accesses (Count)
system.cpu.dcache.demandMissRate::cpu.data     0.006711                       # miss rate for demand accesses (Ratio)
system.cpu.dcache.demandMissRate::total      0.006711                       # miss rate for demand accesses (Ratio)
system.cpu.dcache.overallMissRate::cpu.data     0.006711                       # miss rate for overall accesses (Ratio)
system.cpu.dcache.overallMissRate::total     0.006711                       # miss rate for overall accesses (Ratio)
system.cpu.dcache.demandAvgMissLatency::cpu.data 59576.034755                       # average overall miss latency ((Cycle/Count))
system.cpu.dcache.demandAvgMissLatency::total 59576.034755                       # average overall miss latency ((Cycle/Count))
system.cpu.dcache.overallAvgMissLatency::cpu.data 59576.034755                       # average overall miss latency ((Cycle/Count))
system.cpu.dcache.overallAvgMissLatency::total 59576.034755                       # average overall miss latency ((Cycle/Count))
system.cpu.dcache.blockedCycles::no_mshrs        37196                       # number of cycles access was blocked (Cycle)
system.cpu.dcache.blockedCycles::no_targets          473                       # number of cycles access was blocked (Cycle)
system.cpu.dcache.blockedCauses::no_mshrs         1013                       # number of times access was blocked (Count)
system.cpu.dcache.blockedCauses::no_targets            7                       # number of times access was blocked (Count)
system.cpu.dcache.avgBlocked::no_mshrs      36.718657                       # average number of cycles each access was blocked ((Cycle/Count))
system.cpu.dcache.avgBlocked::no_targets    67.571429                       # average number of cycles each access was blocked ((Cycle/Count))
system.cpu.dcache.writebacks::writebacks        14787                       # number of writebacks (Count)
system.cpu.dcache.writebacks::total             14787                       # number of writebacks (Count)
system.cpu.dcache.demandMshrHits::cpu.data        45407                       # number of demand (read+write) MSHR hits (Count)
system.cpu.dcache.demandMshrHits::total         45407                       # number of demand (read+write) MSHR hits (Count)
system.cpu.dcache.overallMshrHits::cpu.data        45407                       # number of overall MSHR hits (Count)
system.cpu.dcache.overallMshrHits::total        45407                       # number of overall MSHR hits (Count)
system.cpu.dcache.demandMshrMisses::cpu.data        33057                       # number of demand (read+write) MSHR misses (Count)
system.cpu.dcache.demandMshrMisses::total        33057                       # number of demand (read+write) MSHR misses (Count)
system.cpu.dcache.overallMshrMisses::cpu.data        33057                       # number of overall MSHR misses (Count)
system.cpu.dcache.overallMshrMisses::total        33057                       # number of overall MSHR misses (Count)
system.cpu.dcache.demandMshrMissLatency::cpu.data   1941408991                       # number of demand (read+write) MSHR miss ticks (Tick)
system.cpu.dcache.demandMshrMissLatency::total   1941408991                       # number of demand (read+write) MSHR miss ticks (Tick)
system.cpu.dcache.overallMshrMissLatency::cpu.data   1941408991                       # number of overall MSHR miss ticks (Tick)
system.cpu.dcache.overallMshrMissLatency::total   1941408991                       # number of overall MSHR miss ticks (Tick)
system.cpu.dcache.demandMshrMissRate::cpu.data     0.002827                       # mshr miss ratio for demand accesses (Ratio)
system.cpu.dcache.demandMshrMissRate::total     0.002827                       # mshr miss ratio for demand accesses (Ratio)
system.cpu.dcache.overallMshrMissRate::cpu.data     0.002827                       # mshr miss ratio for overall accesses (Ratio)
system.cpu.dcache.overallMshrMissRate::total     0.002827                       # mshr miss ratio for overall accesses (Ratio)
system.cpu.dcache.demandAvgMshrMissLatency::cpu.data 58729.134253                       # average overall mshr miss latency ((Cycle/Count))
system.cpu.dcache.demandAvgMshrMissLatency::total 58729.134253                       # average overall mshr miss latency ((Cycle/Count))
system.cpu.dcache.overallAvgMshrMissLatency::cpu.data 58729.134253                       # average overall mshr miss latency ((Cycle/Count))
system.cpu.dcache.overallAvgMshrMissLatency::total 58729.134253                       # average overall mshr miss latency ((Cycle/Count))
system.cpu.dcache.replacements                  32801                       # number of replacements (Count)
system.cpu.dcache.ReadReq.hits::cpu.data      9077287                       # number of ReadReq hits (Count)
system.cpu.dcache.ReadReq.hits::total         9077287                       # number of ReadReq hits (Count)
system.cpu.dcache.ReadReq.misses::cpu.data        67175                       # number of ReadReq misses (Count)
system.cpu.dcache.ReadReq.misses::total         67175                       # number of ReadReq misses (Count)
system.cpu.dcache.ReadReq.missLatency::cpu.data   3834326000                       # number of ReadReq miss ticks (Tick)
system.cpu.dcache.ReadReq.missLatency::total   3834326000                       # number of ReadReq miss ticks (Tick)
system.cpu.dcache.ReadReq.accesses::cpu.data      9144462                       # number of ReadReq accesses(hits+misses) (Count)
system.cpu.dcache.ReadReq.accesses::total      9144462                       # number of ReadReq accesses(hits+misses) (Count)
system.cpu.dcache.ReadReq.missRate::cpu.data     0.007346                       # miss rate for ReadReq accesses (Ratio)
system.cpu.dcache.ReadReq.missRate::total     0.007346                       # miss rate for ReadReq accesses (Ratio)
system.cpu.dcache.ReadReq.avgMissLatency::cpu.data 57079.657611                       # average ReadReq miss latency ((Tick/Count))
system.cpu.dcache.ReadReq.avgMissLatency::total 57079.657611                       # average ReadReq miss latency ((Tick/Count))
system.cpu.dcache.ReadReq.mshrHits::cpu.data        45398                       # number of ReadReq MSHR hits (Count)
system.cpu.dcache.ReadReq.mshrHits::total        45398                       # number of ReadReq MSHR hits (Count)
system.cpu.dcache.ReadReq.mshrMisses::cpu.data        21777                       # number of ReadReq MSHR misses (Count)
system.cpu.dcache.ReadReq.mshrMisses::total        21777                       # number of ReadReq MSHR misses (Count)
system.cpu.dcache.ReadReq.mshrMissLatency::cpu.data   1113064000                       # number of ReadReq MSHR miss ticks (Tick)
system.cpu.dcache.ReadReq.mshrMissLatency::total   1113064000                       # number of ReadReq MSHR miss ticks (Tick)
system.cpu.dcache.ReadReq.mshrMissRate::cpu.data     0.002381                       # mshr miss rate for ReadReq accesses (Ratio)
system.cpu.dcache.ReadReq.mshrMissRate::total     0.002381                       # mshr miss rate for ReadReq accesses (Ratio)
system.cpu.dcache.ReadReq.avgMshrMissLatency::cpu.data 51111.907058                       # average ReadReq mshr miss latency ((Tick/Count))
system.cpu.dcache.ReadReq.avgMshrMissLatency::total 51111.907058                       # average ReadReq mshr miss latency ((Tick/Count))
system.cpu.dcache.WriteReq.hits::cpu.data      2536919                       # number of WriteReq hits (Count)
system.cpu.dcache.WriteReq.hits::total        2536919                       # number of WriteReq hits (Count)
system.cpu.dcache.WriteReq.misses::cpu.data        11289                       # number of WriteReq misses (Count)
system.cpu.dcache.WriteReq.misses::total        11289                       # number of WriteReq misses (Count)
system.cpu.dcache.WriteReq.missLatency::cpu.data    840247991                       # number of WriteReq miss ticks (Tick)
system.cpu.dcache.WriteReq.missLatency::total    840247991                       # number of WriteReq miss ticks (Tick)
system.cpu.dcache.WriteReq.accesses::cpu.data      2548208                       # number of WriteReq accesses(hits+misses) (Count)
system.cpu.dcache.WriteReq.accesses::total      2548208                       # number of WriteReq accesses(hits+misses) (Count)
system.cpu.dcache.WriteReq.missRate::cpu.data     0.004430                       # miss rate for WriteReq accesses (Ratio)
system.cpu.dcache.WriteReq.missRate::total     0.004430                       # miss rate for WriteReq accesses (Ratio)
system.cpu.dcache.WriteReq.avgMissLatency::cpu.data 74430.683940                       # average WriteReq miss latency ((Tick/Count))
system.cpu.dcache.WriteReq.avgMissLatency::total 74430.683940                       # average WriteReq miss latency ((Tick/Count))
system.cpu.dcache.WriteReq.mshrHits::cpu.data            9                       # number of WriteReq MSHR hits (Count)
system.cpu.dcache.WriteReq.mshrHits::total            9                       # number of WriteReq MSHR hits (Count)
system.cpu.dcache.WriteReq.mshrMisses::cpu.data        11280                       # number of WriteReq MSHR misses (Count)
system.cpu.dcache.WriteReq.mshrMisses::total        11280                       # number of WriteReq MSHR misses (Count)
system.cpu.dcache.WriteReq.mshrMissLatency::cpu.data    828344991                       # number of WriteReq MSHR miss ticks (Tick)
system.cpu.dcache.WriteReq.mshrMissLatency::total    828344991                       # number of WriteReq MSHR miss ticks (Tick)
system.cpu.dcache.WriteReq.mshrMissRate::cpu.data     0.004427                       # mshr miss rate for WriteReq accesses (Ratio)
system.cpu.dcache.WriteReq.mshrMissRate::total     0.004427                       # mshr miss rate for WriteReq accesses (Ratio)
system.cpu.dcache.WriteReq.avgMshrMissLatency::cpu.data 73434.839628                       # average WriteReq mshr miss latency ((Tick/Count))
system.cpu.dcache.WriteReq.avgMshrMissLatency::total 73434.839628                       # average WriteReq mshr miss latency ((Tick/Count))
system.cpu.dcache.power_state.pwrStateResidencyTicks::UNDEFINED  15603148000                       # Cumulative time (in ticks) in various power states (Tick)
system.cpu.dcache.tags.tagsInUse           255.731413                       # Average ticks per tags in use ((Tick/Count))
system.cpu.dcache.tags.totalRefs             11647263                       # Total number of references to valid blocks. (Count)
system.cpu.dcache.tags.sampledRefs              33057                       # Sample count of references to valid blocks. (Count)
system.cpu.dcache.tags.avgRefs             352.338778                       # Average number of references to valid blocks. ((Count/Count))
system.cpu.dcache.tags.warmupTick              179500                       # The tick when the warmup percentage was hit. (Tick)
system.cpu.dcache.tags.occupancies::cpu.data   255.731413                       # Average occupied blocks per tick, per requestor ((Count/Tick))
system.cpu.dcache.tags.avgOccs::cpu.data     0.998951                       # Average percentage of cache occupancy ((Ratio/Tick))
system.cpu.dcache.tags.avgOccs::total        0.998951                       # Average percentage of cache occupancy ((Ratio/Tick))
system.cpu.dcache.tags.occupanciesTaskId::1024          256                       # Occupied blocks per task id (Count)
system.cpu.dcache.tags.ageTaskId_1024::0            6                       # Occupied blocks per task id, per block age (Count)
system.cpu.dcache.tags.ageTaskId_1024::1           55                       # Occupied blocks per task id, per block age (Count)
system.cpu.dcache.tags.ageTaskId_1024::2          133                       # Occupied blocks per task id, per block age (Count)
system.cpu.dcache.tags.ageTaskId_1024::3            2                       # Occupied blocks per task id, per block age (Count)
system.cpu.dcache.tags.ageTaskId_1024::4           60                       # Occupied blocks per task id, per block age (Count)
system.cpu.dcache.tags.ratioOccsTaskId::1024            1                       # Ratio of occupied blocks and all blocks, per task id (Ratio)
system.cpu.dcache.tags.tagAccesses           23418397                       # Number of tag accesses (Count)
system.cpu.dcache.tags.dataAccesses          23418397                       # Number of data accesses (Count)
system.cpu.dcache.tags.power_state.pwrStateResidencyTicks::UNDEFINED  15603148000                       # Cumulative time (in ticks) in various power states (Tick)
system.cpu.decode.idleCycles                  6809489                       # Number of cycles decode is idle (Cycle)
system.cpu.decode.blockedCycles               6006252                       # Number of cycles decode is blocked (Cycle)
system.cpu.decode.runCycles                  16720224                       # Number of cycles decode is running (Cycle)
system.cpu.decode.unblockCycles               1039803                       # Number of cycles decode is unblocking (Cycle)
system.cpu.decode.squashCycles                 437552                       # Number of cycles decode is squashing (Cycle)
system.cpu.decode.branchResolved              5269826                       # Number of times decode resolved a branch (Count)
system.cpu.decode.branchMispred                  1381                       # Number of times decode detected a branch misprediction (Count)
system.cpu.decode.decodedInsts              123940134                       # Number of instructions handled by decode (Count)
system.cpu.decode.squashedInsts                  6427                       # Number of squashed instructions handled by decode (Count)
system.cpu.dtb_walker_cache.blockedCycles::no_mshrs            0                       # number of cycles access was blocked (Cycle)
system.cpu.dtb_walker_cache.blockedCycles::no_targets            0                       # number of cycles access was blocked (Cycle)
system.cpu.dtb_walker_cache.blockedCauses::no_mshrs            0                       # number of times access was blocked (Count)
system.cpu.dtb_walker_cache.blockedCauses::no_targets            0                       # number of times access was blocked (Count)
system.cpu.dtb_walker_cache.avgBlocked::no_mshrs          nan                       # average number of cycles each access was blocked ((Cycle/Count))
system.cpu.dtb_walker_cache.avgBlocked::no_targets          nan                       # average number of cycles each access was blocked ((Cycle/Count))
system.cpu.dtb_walker_cache.replacements            0                       # number of replacements (Count)
system.cpu.dtb_walker_cache.power_state.pwrStateResidencyTicks::UNDEFINED  15603148000                       # Cumulative time (in ticks) in various power states (Tick)
system.cpu.dtb_walker_cache.tags.tagsInUse            0                       # Average ticks per tags in use ((Tick/Count))
system.cpu.dtb_walker_cache.tags.totalRefs            0                       # Total number of references to valid blocks. (Count)
system.cpu.dtb_walker_cache.tags.sampledRefs            0                       # Sample count of references to valid blocks. (Count)
system.cpu.dtb_walker_cache.tags.avgRefs          nan                       # Average number of references to valid blocks. ((Count/Count))
system.cpu.dtb_walker_cache.tags.warmupTick            0                       # The tick when the warmup percentage was hit. (Tick)
system.cpu.dtb_walker_cache.tags.tagAccesses            0                       # Number of tag accesses (Count)
system.cpu.dtb_walker_cache.tags.dataAccesses            0                       # Number of data accesses (Count)
system.cpu.dtb_walker_cache.tags.power_state.pwrStateResidencyTicks::UNDEFINED  15603148000                       # Cumulative time (in ticks) in various power states (Tick)
system.cpu.fetch.icacheStallCycles            6927174                       # Number of cycles fetch is stalled on an Icache miss (Cycle)
system.cpu.fetch.insts                       78138777                       # Number of instructions fetch has processed (Count)
system.cpu.fetch.branches                    10832444                       # Number of branches that fetch encountered (Count)
system.cpu.fetch.predictedBranches            6433137                       # Number of branches that fetch has predicted taken (Count)
system.cpu.fetch.cycles                      23640326                       # Number of cycles fetch has run and was not squashing or blocked (Cycle)
system.cpu.fetch.squashCycles                  877812                       # Number of cycles fetch has spent squashing (Cycle)
system.cpu.fetch.miscStallCycles                  894                       # Number of cycles fetch has spent waiting on interrupts, or bad addresses, or out of MSHRs (Cycle)
system.cpu.fetch.pendingTrapStallCycles          5964                       # Number of stall cycles due to pending traps (Cycle)
system.cpu.fetch.pendingQuiesceStallCycles           26                       # Number of stall cycles due to pending quiesce instructions (Cycle)
system.cpu.fetch.icacheWaitRetryStallCycles           30                       # Number of stall cycles due to full MSHR (Cycle)
system.cpu.fetch.cacheLines                   6767430                       # Number of cache lines fetched (Count)
system.cpu.fetch.icacheSquashes                120425                       # Number of outstanding Icache misses that were squashed (Count)
system.cpu.fetch.nisnDist::samples           31013320                       # Number of instructions fetched each cycle (Total) (Count)
system.cpu.fetch.nisnDist::mean              4.111253                       # Number of instructions fetched each cycle (Total) (Count)
system.cpu.fetch.nisnDist::stdev             3.563191                       # Number of instructions fetched each cycle (Total) (Count)
system.cpu.fetch.nisnDist::underflows               0      0.00%      0.00% # Number of instructions fetched each cycle (Total) (Count)
system.cpu.fetch.nisnDist::0                 11074990     35.71%     35.71% # Number of instructions fetched each cycle (Total) (Count)
system.cpu.fetch.nisnDist::1                  1623905      5.24%     40.95% # Number of instructions fetched each cycle (Total) (Count)
system.cpu.fetch.nisnDist::2                   171171      0.55%     41.50% # Number of instructions fetched each cycle (Total) (Count)
system.cpu.fetch.nisnDist::3                   888959      2.87%     44.36% # Number of instructions fetched each cycle (Total) (Count)
system.cpu.fetch.nisnDist::4                  1653673      5.33%     49.70% # Number of instructions fetched each cycle (Total) (Count)
system.cpu.fetch.nisnDist::5                  1515617      4.89%     54.58% # Number of instructions fetched each cycle (Total) (Count)
system.cpu.fetch.nisnDist::6                   945679      3.05%     57.63% # Number of instructions fetched each cycle (Total) (Count)
system.cpu.fetch.nisnDist::7                  2110991      6.81%     64.44% # Number of instructions fetched each cycle (Total) (Count)
system.cpu.fetch.nisnDist::8                 11028335     35.56%    100.00% # Number of instructions fetched each cycle (Total) (Count)
system.cpu.fetch.nisnDist::overflows                0      0.00%    100.00% # Number of instructions fetched each cycle (Total) (Count)
system.cpu.fetch.nisnDist::min_value                0                       # Number of instructions fetched each cycle (Total) (Count)
system.cpu.fetch.nisnDist::max_value                8                       # Number of instructions fetched each cycle (Total) (Count)
system.cpu.fetch.nisnDist::total             31013320                       # Number of instructions fetched each cycle (Total) (Count)
system.cpu.fetch.branchRate                  0.347124                       # Number of branch fetches per cycle (Ratio)
system.cpu.fetch.rate                        2.503943                       # Number of inst fetches per cycle ((Count/Cycle))
system.cpu.icache.demandHits::cpu.inst        6762128                       # number of demand (read+write) hits (Count)
system.cpu.icache.demandHits::total           6762128                       # number of demand (read+write) hits (Count)
system.cpu.icache.overallHits::cpu.inst       6762128                       # number of overall hits (Count)
system.cpu.icache.overallHits::total          6762128                       # number of overall hits (Count)
system.cpu.icache.demandMisses::cpu.inst         5302                       # number of demand (read+write) misses (Count)
system.cpu.icache.demandMisses::total            5302                       # number of demand (read+write) misses (Count)
system.cpu.icache.overallMisses::cpu.inst         5302                       # number of overall misses (Count)
system.cpu.icache.overallMisses::total           5302                       # number of overall misses (Count)
system.cpu.icache.demandMissLatency::cpu.inst    269811499                       # number of demand (read+write) miss ticks (Tick)
system.cpu.icache.demandMissLatency::total    269811499                       # number of demand (read+write) miss ticks (Tick)
system.cpu.icache.overallMissLatency::cpu.inst    269811499                       # number of overall miss ticks (Tick)
system.cpu.icache.overallMissLatency::total    269811499                       # number of overall miss ticks (Tick)
system.cpu.icache.demandAccesses::cpu.inst      6767430                       # number of demand (read+write) accesses (Count)
system.cpu.icache.demandAccesses::total       6767430                       # number of demand (read+write) accesses (Count)
system.cpu.icache.overallAccesses::cpu.inst      6767430                       # number of overall (read+write) accesses (Count)
system.cpu.icache.overallAccesses::total      6767430                       # number of overall (read+write) accesses (Count)
system.cpu.icache.demandMissRate::cpu.inst     0.000783                       # miss rate for demand accesses (Ratio)
system.cpu.icache.demandMissRate::total      0.000783                       # miss rate for demand accesses (Ratio)
system.cpu.icache.overallMissRate::cpu.inst     0.000783                       # miss rate for overall accesses (Ratio)
system.cpu.icache.overallMissRate::total     0.000783                       # miss rate for overall accesses (Ratio)
system.cpu.icache.demandAvgMissLatency::cpu.inst 50888.626745                       # average overall miss latency ((Cycle/Count))
system.cpu.icache.demandAvgMissLatency::total 50888.626745                       # average overall miss latency ((Cycle/Count))
system.cpu.icache.overallAvgMissLatency::cpu.inst 50888.626745                       # average overall miss latency ((Cycle/Count))
system.cpu.icache.overallAvgMissLatency::total 50888.626745                       # average overall miss latency ((Cycle/Count))
system.cpu.icache.blockedCycles::no_mshrs          792                       # number of cycles access was blocked (Cycle)
system.cpu.icache.blockedCycles::no_targets            0                       # number of cycles access was blocked (Cycle)
system.cpu.icache.blockedCauses::no_mshrs           17                       # number of times access was blocked (Count)
system.cpu.icache.blockedCauses::no_targets            0                       # number of times access was blocked (Count)
system.cpu.icache.avgBlocked::no_mshrs      46.588235                       # average number of cycles each access was blocked ((Cycle/Count))
system.cpu.icache.avgBlocked::no_targets          nan                       # average number of cycles each access was blocked ((Cycle/Count))
system.cpu.icache.writebacks::writebacks         4200                       # number of writebacks (Count)
system.cpu.icache.writebacks::total              4200                       # number of writebacks (Count)
system.cpu.icache.demandMshrHits::cpu.inst          846                       # number of demand (read+write) MSHR hits (Count)
system.cpu.icache.demandMshrHits::total           846                       # number of demand (read+write) MSHR hits (Count)
system.cpu.icache.overallMshrHits::cpu.inst          846                       # number of overall MSHR hits (Count)
system.cpu.icache.overallMshrHits::total          846                       # number of overall MSHR hits (Count)
system.cpu.icache.demandMshrMisses::cpu.inst         4456                       # number of demand (read+write) MSHR misses (Count)
system.cpu.icache.demandMshrMisses::total         4456                       # number of demand (read+write) MSHR misses (Count)
system.cpu.icache.overallMshrMisses::cpu.inst         4456                       # number of overall MSHR misses (Count)
system.cpu.icache.overallMshrMisses::total         4456                       # number of overall MSHR misses (Count)
system.cpu.icache.demandMshrMissLatency::cpu.inst    218510000                       # number of demand (read+write) MSHR miss ticks (Tick)
system.cpu.icache.demandMshrMissLatency::total    218510000                       # number of demand (read+write) MSHR miss ticks (Tick)
system.cpu.icache.overallMshrMissLatency::cpu.inst    218510000                       # number of overall MSHR miss ticks (Tick)
system.cpu.icache.overallMshrMissLatency::total    218510000                       # number of overall MSHR miss ticks (Tick)
system.cpu.icache.demandMshrMissRate::cpu.inst     0.000658                       # mshr miss ratio for demand accesses (Ratio)
system.cpu.icache.demandMshrMissRate::total     0.000658                       # mshr miss ratio for demand accesses (Ratio)
system.cpu.icache.overallMshrMissRate::cpu.inst     0.000658                       # mshr miss ratio for overall accesses (Ratio)
system.cpu.icache.overallMshrMissRate::total     0.000658                       # mshr miss ratio for overall accesses (Ratio)
system.cpu.icache.demandAvgMshrMissLatency::cpu.inst 49037.253142                       # average overall mshr miss latency ((Cycle/Count))
system.cpu.icache.demandAvgMshrMissLatency::total 49037.253142                       # average overall mshr miss latency ((Cycle/Count))
system.cpu.icache.overallAvgMshrMissLatency::cpu.inst 49037.253142                       # average overall mshr miss latency ((Cycle/Count))
system.cpu.icache.overallAvgMshrMissLatency::total 49037.253142                       # average overall mshr miss latency ((Cycle/Count))
system.cpu.icache.replacements                   4200                       # number of replacements (Count)
system.cpu.icache.ReadReq.hits::cpu.inst      6762128                       # number of ReadReq hits (Count)
system.cpu.icache.ReadReq.hits::total         6762128                       # number of ReadReq hits (Count)
system.cpu.icache.ReadReq.misses::cpu.inst         5302                       # number of ReadReq misses (Count)
system.cpu.icache.ReadReq.misses::total          5302                       # number of ReadReq misses (Count)
system.cpu.icache.ReadReq.missLatency::cpu.inst    269811499                       # number of ReadReq miss ticks (Tick)
system.cpu.icache.ReadReq.missLatency::total    269811499                       # number of ReadReq miss ticks (Tick)
system.cpu.icache.ReadReq.accesses::cpu.inst      6767430                       # number of ReadReq accesses(hits+misses) (Count)
system.cpu.icache.ReadReq.accesses::total      6767430                       # number of ReadReq accesses(hits+misses) (Count)
system.cpu.icache.ReadReq.missRate::cpu.inst     0.000783                       # miss rate for ReadReq accesses (Ratio)
system.cpu.icache.ReadReq.missRate::total     0.000783                       # miss rate for ReadReq accesses (Ratio)
system.cpu.icache.ReadReq.avgMissLatency::cpu.inst 50888.626745                       # average ReadReq miss latency ((Tick/Count))
system.cpu.icache.ReadReq.avgMissLatency::total 50888.626745                       # average ReadReq miss latency ((Tick/Count))
system.cpu.icache.ReadReq.mshrHits::cpu.inst          846                       # number of ReadReq MSHR hits (Count)
system.cpu.icache.ReadReq.mshrHits::total          846                       # number of ReadReq MSHR hits (Count)
system.cpu.icache.ReadReq.mshrMisses::cpu.inst         4456                       # number of ReadReq MSHR misses (Count)
system.cpu.icache.ReadReq.mshrMisses::total         4456                       # number of ReadReq MSHR misses (Count)
system.cpu.icache.ReadReq.mshrMissLatency::cpu.inst    218510000                       # number of ReadReq MSHR miss ticks (Tick)
system.cpu.icache.ReadReq.mshrMissLatency::total    218510000                       # number of ReadReq MSHR miss ticks (Tick)
system.cpu.icache.ReadReq.mshrMissRate::cpu.inst     0.000658                       # mshr miss rate for ReadReq accesses (Ratio)
system.cpu.icache.ReadReq.mshrMissRate::total     0.000658                       # mshr miss rate for ReadReq accesses (Ratio)
system.cpu.icache.ReadReq.avgMshrMissLatency::cpu.inst 49037.253142                       # average ReadReq mshr miss latency ((Tick/Count))
system.cpu.icache.ReadReq.avgMshrMissLatency::total 49037.253142                       # average ReadReq mshr miss latency ((Tick/Count))
system.cpu.icache.power_state.pwrStateResidencyTicks::UNDEFINED  15603148000                       # Cumulative time (in ticks) in various power states (Tick)
system.cpu.icache.tags.tagsInUse           255.788336                       # Average ticks per tags in use ((Tick/Count))
system.cpu.icache.tags.totalRefs              6766584                       # Total number of references to valid blocks. (Count)
system.cpu.icache.tags.sampledRefs               4456                       # Sample count of references to valid blocks. (Count)
system.cpu.icache.tags.avgRefs            1518.533214                       # Average number of references to valid blocks. ((Count/Count))
system.cpu.icache.tags.warmupTick               87500                       # The tick when the warmup percentage was hit. (Tick)
system.cpu.icache.tags.occupancies::cpu.inst   255.788336                       # Average occupied blocks per tick, per requestor ((Count/Tick))
system.cpu.icache.tags.avgOccs::cpu.inst     0.999173                       # Average percentage of cache occupancy ((Ratio/Tick))
system.cpu.icache.tags.avgOccs::total        0.999173                       # Average percentage of cache occupancy ((Ratio/Tick))
system.cpu.icache.tags.occupanciesTaskId::1024          256                       # Occupied blocks per task id (Count)
system.cpu.icache.tags.ageTaskId_1024::4          256                       # Occupied blocks per task id, per block age (Count)
system.cpu.icache.tags.ratioOccsTaskId::1024            1                       # Ratio of occupied blocks and all blocks, per task id (Ratio)
system.cpu.icache.tags.tagAccesses           13539316                       # Number of tag accesses (Count)
system.cpu.icache.tags.dataAccesses          13539316                       # Number of data accesses (Count)
system.cpu.icache.tags.power_state.pwrStateResidencyTicks::UNDEFINED  15603148000                       # Cumulative time (in ticks) in various power states (Tick)
system.cpu.iew.idleCycles                           0                       # Number of cycles IEW is idle (Cycle)
system.cpu.iew.squashCycles                    437552                       # Number of cycles IEW is squashing (Cycle)
system.cpu.iew.blockCycles                    5014063                       # Number of cycles IEW is blocking (Cycle)
system.cpu.iew.unblockCycles                    35309                       # Number of cycles IEW is unblocking (Cycle)
system.cpu.iew.dispatchedInsts              117008491                       # Number of instructions dispatched to IQ (Count)
system.cpu.iew.dispSquashedInsts                 1135                       # Number of squashed instructions skipped by dispatch (Count)
system.cpu.iew.dispLoadInsts                 10796413                       # Number of dispatched load instructions (Count)
system.cpu.iew.dispStoreInsts                 4184126                       # Number of dispatched store instructions (Count)
system.cpu.iew.dispNonSpecInsts                   714                       # Number of dispatched non-speculative instructions (Count)
system.cpu.iew.iqFullEvents                     10799                       # Number of times the IQ has become full, causing a stall (Count)
system.cpu.iew.lsqFullEvents                    19460                       # Number of times the LSQ has become full, causing a stall (Count)
system.cpu.iew.memOrderViolationEvents            538                       # Number of memory order violations (Count)
system.cpu.iew.predictedTakenIncorrect         199030                       # Number of branches that were predicted taken incorrectly (Count)
system.cpu.iew.predictedNotTakenIncorrect       241327                       # Number of branches that were predicted not taken incorrectly (Count)
system.cpu.iew.branchMispredicts               440357                       # Number of branch mispredicts detected at execute (Count)
system.cpu.iew.instsToCommit                102647685                       # Cumulative count of insts sent to commit (Count)
system.cpu.iew.writebackCount               102522047                       # Cumulative count of insts written-back (Count)
system.cpu.iew.producerInst                  82664534                       # Number of instructions producing a value (Count)
system.cpu.iew.consumerInst                 152909991                       # Number of instructions consuming a value (Count)
system.cpu.iew.wbRate                        3.285300                       # Insts written-back per cycle ((Count/Cycle))
system.cpu.iew.wbFanout                      0.540609                       # Average fanout of values written-back ((Count/Count))
system.cpu.interrupts.clk_domain.clock           8000                       # Clock period in ticks (Tick)
system.cpu.itb_walker_cache.blockedCycles::no_mshrs            0                       # number of cycles access was blocked (Cycle)
system.cpu.itb_walker_cache.blockedCycles::no_targets            0                       # number of cycles access was blocked (Cycle)
system.cpu.itb_walker_cache.blockedCauses::no_mshrs            0                       # number of times access was blocked (Count)
system.cpu.itb_walker_cache.blockedCauses::no_targets            0                       # number of times access was blocked (Count)
system.cpu.itb_walker_cache.avgBlocked::no_mshrs          nan                       # average number of cycles each access was blocked ((Cycle/Count))
system.cpu.itb_walker_cache.avgBlocked::no_targets          nan                       # average number of cycles each access was blocked ((Cycle/Count))
system.cpu.itb_walker_cache.replacements            0                       # number of replacements (Count)
system.cpu.itb_walker_cache.power_state.pwrStateResidencyTicks::UNDEFINED  15603148000                       # Cumulative time (in ticks) in various power states (Tick)
system.cpu.itb_walker_cache.tags.tagsInUse            0                       # Average ticks per tags in use ((Tick/Count))
system.cpu.itb_walker_cache.tags.totalRefs            0                       # Total number of references to valid blocks. (Count)
system.cpu.itb_walker_cache.tags.sampledRefs            0                       # Sample count of references to valid blocks. (Count)
system.cpu.itb_walker_cache.tags.avgRefs          nan                       # Average number of references to valid blocks. ((Count/Count))
system.cpu.itb_walker_cache.tags.warmupTick            0                       # The tick when the warmup percentage was hit. (Tick)
system.cpu.itb_walker_cache.tags.tagAccesses            0                       # Number of tag accesses (Count)
system.cpu.itb_walker_cache.tags.dataAccesses            0                       # Number of data accesses (Count)
system.cpu.itb_walker_cache.tags.power_state.pwrStateResidencyTicks::UNDEFINED  15603148000                       # Cumulative time (in ticks) in various power states (Tick)
system.cpu.lsq0.forwLoads                     1490521                       # Number of loads that had data forwarded from stores (Count)
system.cpu.lsq0.squashedLoads                 2717383                       # Number of loads squashed (Count)
system.cpu.lsq0.ignoredResponses                  199                       # Number of memory responses ignored because the instruction is squashed (Count)
system.cpu.lsq0.memOrderViolation                 538                       # Number of memory ordering violations (Count)
system.cpu.lsq0.squashedStores                1635936                       # Number of stores squashed (Count)
system.cpu.lsq0.rescheduledLoads                   24                       # Number of loads that were rescheduled (Count)
system.cpu.lsq0.blockedByCache                    804                       # Number of times an access to memory failed due to the cache being blocked (Count)
system.cpu.lsq0.loadToUse::samples            8079023                       # Distribution of cycle latency between the first time a load is issued and its completion (Unspecified)
system.cpu.lsq0.loadToUse::mean              3.849936                       # Distribution of cycle latency between the first time a load is issued and its completion (Unspecified)
system.cpu.lsq0.loadToUse::stdev            11.693908                       # Distribution of cycle latency between the first time a load is issued and its completion (Unspecified)
system.cpu.lsq0.loadToUse::0-9                8025511     99.34%     99.34% # Distribution of cycle latency between the first time a load is issued and its completion (Unspecified)
system.cpu.lsq0.loadToUse::10-19                 2517      0.03%     99.37% # Distribution of cycle latency between the first time a load is issued and its completion (Unspecified)
system.cpu.lsq0.loadToUse::20-29                12661      0.16%     99.53% # Distribution of cycle latency between the first time a load is issued and its completion (Unspecified)
system.cpu.lsq0.loadToUse::30-39                  586      0.01%     99.53% # Distribution of cycle latency between the first time a load is issued and its completion (Unspecified)
system.cpu.lsq0.loadToUse::40-49                  172      0.00%     99.53% # Distribution of cycle latency between the first time a load is issued and its completion (Unspecified)
system.cpu.lsq0.loadToUse::50-59                  241      0.00%     99.54% # Distribution of cycle latency between the first time a load is issued and its completion (Unspecified)
system.cpu.lsq0.loadToUse::60-69                  135      0.00%     99.54% # Distribution of cycle latency between the first time a load is issued and its completion (Unspecified)
[...]
system.mem_ctrls.dram.perBankWrBursts::12          538                       # Per bank write bursts (Count)
system.mem_ctrls.dram.perBankWrBursts::13          452                       # Per bank write bursts (Count)
system.mem_ctrls.dram.perBankWrBursts::14          608                       # Per bank write bursts (Count)
system.mem_ctrls.dram.perBankWrBursts::15          576                       # Per bank write bursts (Count)
system.mem_ctrls.dram.totQLat               288177250                       # Total ticks spent queuing (Tick)
system.mem_ctrls.dram.totBusLat             119330000                       # Total ticks spent in databus transfers (Tick)
system.mem_ctrls.dram.totMemAccLat          735664750                       # Total ticks spent from burst creation until serviced by the DRAM (Tick)
system.mem_ctrls.dram.avgQLat                12074.80                       # Average queueing delay per DRAM burst ((Tick/Count))
system.mem_ctrls.dram.avgBusLat               5000.00                       # Average bus latency per DRAM burst ((Tick/Count))
system.mem_ctrls.dram.avgMemAccLat           30824.80                       # Average memory access latency per DRAM burst ((Tick/Count))
system.mem_ctrls.dram.readRowHits               15774                       # Number of row buffer hits during reads (Count)
system.mem_ctrls.dram.writeRowHits               7207                       # Number of row buffer hits during writes (Count)
system.mem_ctrls.dram.readRowHitRate            66.09                       # Row buffer hit rate for reads (Ratio)
system.mem_ctrls.dram.writeRowHitRate           85.57                       # Row buffer hit rate for writes (Ratio)
system.mem_ctrls.dram.bytesPerActivate::samples         9306                       # Bytes accessed per row activation (Byte)
system.mem_ctrls.dram.bytesPerActivate::mean   222.039974                       # Bytes accessed per row activation (Byte)
system.mem_ctrls.dram.bytesPerActivate::gmean   146.100140                       # Bytes accessed per row activation (Byte)
system.mem_ctrls.dram.bytesPerActivate::stdev   244.178667                       # Bytes accessed per row activation (Byte)
system.mem_ctrls.dram.bytesPerActivate::0-127         3756     40.36%     40.36% # Bytes accessed per row activation (Byte)
system.mem_ctrls.dram.bytesPerActivate::128-255         2811     30.21%     70.57% # Bytes accessed per row activation (Byte)
system.mem_ctrls.dram.bytesPerActivate::256-383         1057     11.36%     81.93% # Bytes accessed per row activation (Byte)
system.mem_ctrls.dram.bytesPerActivate::384-511          769      8.26%     90.19% # Bytes accessed per row activation (Byte)
system.mem_ctrls.dram.bytesPerActivate::512-639          176      1.89%     92.08% # Bytes accessed per row activation (Byte)
system.mem_ctrls.dram.bytesPerActivate::640-767          117      1.26%     93.34% # Bytes accessed per row activation (Byte)
system.mem_ctrls.dram.bytesPerActivate::768-895           73      0.78%     94.12% # Bytes accessed per row activation (Byte)
system.mem_ctrls.dram.bytesPerActivate::896-1023           62      0.67%     94.79% # Bytes accessed per row activation (Byte)
system.mem_ctrls.dram.bytesPerActivate::1024-1151          485      5.21%    100.00% # Bytes accessed per row activation (Byte)
system.mem_ctrls.dram.bytesPerActivate::total         9306                       # Bytes accessed per row activation (Byte)
system.mem_ctrls.dram.bytesRead               1527424                       # Total bytes read (Byte)
system.mem_ctrls.dram.bytesWritten             539008                       # Total bytes written (Byte)
system.mem_ctrls.dram.avgRdBW               97.892041                       # Average DRAM read bandwidth in MiBytes/s ((Byte/Second))
system.mem_ctrls.dram.avgWrBW               34.544824                       # Average DRAM write bandwidth in MiBytes/s ((Byte/Second))
system.mem_ctrls.dram.peakBW                 12800.00                       # Theoretical peak bandwidth in MiByte/s ((Byte/Second))
system.mem_ctrls.dram.busUtil                    1.03                       # Data bus utilization in percentage (Ratio)
system.mem_ctrls.dram.busUtilRead                0.76                       # Data bus utilization in percentage for reads (Ratio)
system.mem_ctrls.dram.busUtilWrite               0.27                       # Data bus utilization in percentage for writes (Ratio)
system.mem_ctrls.dram.pageHitRate               71.18                       # Row buffer hit rate, read and write combined (Ratio)
system.mem_ctrls.dram.power_state.pwrStateResidencyTicks::UNDEFINED  15603148000                       # Cumulative time (in ticks) in various power states (Tick)
system.mem_ctrls.dram.rank0.actEnergy        35114520                       # Energy for activate commands per rank (pJ) (Joule)
system.mem_ctrls.dram.rank0.preEnergy        18660015                       # Energy for precharge commands per rank (pJ) (Joule)
system.mem_ctrls.dram.rank0.readEnergy       84202020                       # Energy for read commands per rank (pJ) (Joule)
system.mem_ctrls.dram.rank0.writeEnergy      20284920                       # Energy for write commands per rank (pJ) (Joule)
system.mem_ctrls.dram.rank0.refreshEnergy 1231123920.000000                       # Energy for refresh commands per rank (pJ) (Joule)
system.mem_ctrls.dram.rank0.actBackEnergy   3276890100                       # Energy for active background per rank (pJ) (Joule)
system.mem_ctrls.dram.rank0.preBackEnergy   3232122720                       # Energy for precharge background per rank (pJ) (Joule)
system.mem_ctrls.dram.rank0.actPowerDownEnergy            0                       # Energy for active power-down per rank (pJ) (Joule)
system.mem_ctrls.dram.rank0.prePowerDownEnergy            0                       # Energy for precharge power-down per rank (pJ) (Joule)
system.mem_ctrls.dram.rank0.selfRefreshEnergy            0                       # Energy for self refresh per rank (pJ) (Joule)
system.mem_ctrls.dram.rank0.totalEnergy    7898398215                       # Total energy per rank (pJ) (Joule)
system.mem_ctrls.dram.rank0.averagePower   506.205428                       # Core power per rank (mW) (Watt)
system.mem_ctrls.dram.rank0.totalIdleTime            0                       # Total Idle time Per DRAM Rank (Tick)
system.mem_ctrls.dram.rank0.pwrStateTime::IDLE   8368634250                       # Time in different power states (Tick)
system.mem_ctrls.dram.rank0.pwrStateTime::REF    520780000                       # Time in different power states (Tick)
system.mem_ctrls.dram.rank0.pwrStateTime::SREF            0                       # Time in different power states (Tick)
system.mem_ctrls.dram.rank0.pwrStateTime::PRE_PDN            0                       # Time in different power states (Tick)
system.mem_ctrls.dram.rank0.pwrStateTime::ACT   6713733750                       # Time in different power states (Tick)
system.mem_ctrls.dram.rank0.pwrStateTime::ACT_PDN            0                       # Time in different power states (Tick)
system.mem_ctrls.dram.rank1.actEnergy        31337460                       # Energy for activate commands per rank (pJ) (Joule)
system.mem_ctrls.dram.rank1.preEnergy        16656255                       # Energy for precharge commands per rank (pJ) (Joule)
system.mem_ctrls.dram.rank1.readEnergy       86201220                       # Energy for read commands per rank (pJ) (Joule)
system.mem_ctrls.dram.rank1.writeEnergy      23677920                       # Energy for write commands per rank (pJ) (Joule)
system.mem_ctrls.dram.rank1.refreshEnergy 1231123920.000000                       # Energy for refresh commands per rank (pJ) (Joule)
system.mem_ctrls.dram.rank1.actBackEnergy   3227541780                       # Energy for active background per rank (pJ) (Joule)
system.mem_ctrls.dram.rank1.preBackEnergy   3273679200                       # Energy for precharge background per rank (pJ) (Joule)
system.mem_ctrls.dram.rank1.actPowerDownEnergy            0                       # Energy for active power-down per rank (pJ) (Joule)
system.mem_ctrls.dram.rank1.prePowerDownEnergy            0                       # Energy for precharge power-down per rank (pJ) (Joule)
system.mem_ctrls.dram.rank1.selfRefreshEnergy            0                       # Energy for self refresh per rank (pJ) (Joule)
system.mem_ctrls.dram.rank1.totalEnergy    7890217755                       # Total energy per rank (pJ) (Joule)
system.mem_ctrls.dram.rank1.averagePower   505.681146                       # Core power per rank (mW) (Watt)
system.mem_ctrls.dram.rank1.totalIdleTime            0                       # Total Idle time Per DRAM Rank (Tick)
system.mem_ctrls.dram.rank1.pwrStateTime::IDLE   8476289000                       # Time in different power states (Tick)
system.mem_ctrls.dram.rank1.pwrStateTime::REF    520780000                       # Time in different power states (Tick)
system.mem_ctrls.dram.rank1.pwrStateTime::SREF            0                       # Time in different power states (Tick)
system.mem_ctrls.dram.rank1.pwrStateTime::PRE_PDN            0                       # Time in different power states (Tick)
system.mem_ctrls.dram.rank1.pwrStateTime::ACT   6606079000                       # Time in different power states (Tick)
system.mem_ctrls.dram.rank1.pwrStateTime::ACT_PDN            0                       # Time in different power states (Tick)
system.mem_ctrls.power_state.pwrStateResidencyTicks::UNDEFINED  15603148000                       # Cumulative time (in ticks) in various power states (Tick)
system.membus.transDist::ReadResp               13810                       # Transaction distribution (Count)
system.membus.transDist::WritebackDirty          8439                       # Transaction distribution (Count)
system.membus.transDist::CleanEvict             13115                       # Transaction distribution (Count)
system.membus.transDist::ReadExReq              10109                       # Transaction distribution (Count)
system.membus.transDist::ReadExResp             10109                       # Transaction distribution (Count)
system.membus.transDist::ReadSharedReq          13810                       # Transaction distribution (Count)
system.membus.pktCount_system.l2.mem_side_port::system.mem_ctrls.port        69392                       # Packet count per connected requestor and responder (Count)
system.membus.pktCount_system.l2.mem_side_port::total        69392                       # Packet count per connected requestor and responder (Count)
system.membus.pktCount::total                   69392                       # Packet count per connected requestor and responder (Count)
system.membus.pktSize_system.l2.mem_side_port::system.mem_ctrls.port      2070912                       # Cumulative packet size per connected requestor and responder (Byte)
system.membus.pktSize_system.l2.mem_side_port::total      2070912                       # Cumulative packet size per connected requestor and responder (Byte)
system.membus.pktSize::total                  2070912                       # Cumulative packet size per connected requestor and responder (Byte)
system.membus.snoops                                0                       # Total snoops (Count)
system.membus.snoopTraffic                          0                       # Total snoop traffic (Byte)
system.membus.snoopFanout::samples              23919                       # Request fanout histogram (Count)
system.membus.snoopFanout::mean                     0                       # Request fanout histogram (Count)
system.membus.snoopFanout::stdev                    0                       # Request fanout histogram (Count)
system.membus.snoopFanout::underflows               0      0.00%      0.00% # Request fanout histogram (Count)
system.membus.snoopFanout::0                    23919    100.00%    100.00% # Request fanout histogram (Count)
system.membus.snoopFanout::1                        0      0.00%    100.00% # Request fanout histogram (Count)
system.membus.snoopFanout::overflows                0      0.00%    100.00% # Request fanout histogram (Count)
system.membus.snoopFanout::min_value                0                       # Request fanout histogram (Count)
system.membus.snoopFanout::max_value                0                       # Request fanout histogram (Count)
system.membus.snoopFanout::total                23919                       # Request fanout histogram (Count)
system.membus.power_state.pwrStateResidencyTicks::UNDEFINED  15603148000                       # Cumulative time (in ticks) in various power states (Tick)
system.membus.reqLayer2.occupancy            85098500                       # Layer occupancy (ticks) (Tick)
system.membus.reqLayer2.utilization               0.0                       # Layer utilization (Ratio)
system.membus.respLayer1.occupancy          128107500                       # Layer occupancy (ticks) (Tick)
system.membus.respLayer1.utilization              0.0                       # Layer utilization (Ratio)
system.membus.snoop_filter.totRequests          45473                       # Total number of requests made to the snoop filter. (Count)
system.membus.snoop_filter.hitSingleRequests        21555                       # Number of requests hitting in the snoop filter with a single holder of the requested data. (Count)
system.membus.snoop_filter.hitMultiRequests            0                       # Number of requests hitting in the snoop filter with multiple (>1) holders of the requested data. (Count)
system.membus.snoop_filter.totSnoops                0                       # Total number of snoops made to the snoop filter. (Count)
system.membus.snoop_filter.hitSingleSnoops            0                       # Number of snoops hitting in the snoop filter with a single holder of the requested data. (Count)
system.membus.snoop_filter.hitMultiSnoops            0                       # Number of snoops hitting in the snoop filter with multiple (>1) holders of the requested data. (Count)
system.tol2bus.transDist::ReadResp              26232                       # Transaction distribution (Count)
system.tol2bus.transDist::WritebackDirty        23226                       # Transaction distribution (Count)
system.tol2bus.transDist::WritebackClean         4200                       # Transaction distribution (Count)
system.tol2bus.transDist::CleanEvict            32033                       # Transaction distribution (Count)
system.tol2bus.transDist::ReadExReq             11281                       # Transaction distribution (Count)
system.tol2bus.transDist::ReadExResp            11281                       # Transaction distribution (Count)
system.tol2bus.transDist::ReadCleanReq           4456                       # Transaction distribution (Count)
system.tol2bus.transDist::ReadSharedReq         21776                       # Transaction distribution (Count)
system.tol2bus.pktCount_system.cpu.icache.mem_side_port::system.l2.cpu_side_port        13109                       # Packet count per connected requestor and responder (Count)
system.tol2bus.pktCount_system.cpu.dcache.mem_side_port::system.l2.cpu_side_port        98915                       # Packet count per connected requestor and responder (Count)
system.tol2bus.pktCount::total                 112024                       # Packet count per connected requestor and responder (Count)
system.tol2bus.pktSize_system.cpu.icache.mem_side_port::system.l2.cpu_side_port       553792                       # Cumulative packet size per connected requestor and responder (Byte)
system.tol2bus.pktSize_system.cpu.dcache.mem_side_port::system.l2.cpu_side_port      3062016                       # Cumulative packet size per connected requestor and responder (Byte)
system.tol2bus.pktSize::total                 3615808                       # Cumulative packet size per connected requestor and responder (Byte)
system.tol2bus.snoops                           22461                       # Total snoops (Count)
system.tol2bus.snoopTraffic                    540288                       # Total snoop traffic (Byte)
system.tol2bus.snoopFanout::samples             59971                       # Request fanout histogram (Count)
system.tol2bus.snoopFanout::mean             0.015891                       # Request fanout histogram (Count)
system.tol2bus.snoopFanout::stdev            0.125188                       # Request fanout histogram (Count)
system.tol2bus.snoopFanout::underflows              0      0.00%      0.00% # Request fanout histogram (Count)
system.tol2bus.snoopFanout::0                   59019     98.41%     98.41% # Request fanout histogram (Count)
system.tol2bus.snoopFanout::1                     951      1.59%    100.00% # Request fanout histogram (Count)
system.tol2bus.snoopFanout::2                       1      0.00%    100.00% # Request fanout histogram (Count)
system.tol2bus.snoopFanout::3                       0      0.00%    100.00% # Request fanout histogram (Count)
system.tol2bus.snoopFanout::4                       0      0.00%    100.00% # Request fanout histogram (Count)
system.tol2bus.snoopFanout::overflows               0      0.00%    100.00% # Request fanout histogram (Count)
system.tol2bus.snoopFanout::min_value               0                       # Request fanout histogram (Count)
system.tol2bus.snoopFanout::max_value               2                       # Request fanout histogram (Count)
system.tol2bus.snoopFanout::total               59971                       # Request fanout histogram (Count)
system.tol2bus.power_state.pwrStateResidencyTicks::UNDEFINED  15603148000                       # Cumulative time (in ticks) in various power states (Tick)
system.tol2bus.reqLayer0.occupancy           56244000                       # Layer occupancy (ticks) (Tick)
system.tol2bus.reqLayer0.utilization              0.0                       # Layer utilization (Ratio)
system.tol2bus.respLayer0.occupancy           6689988                       # Layer occupancy (ticks) (Tick)
system.tol2bus.respLayer0.utilization             0.0                       # Layer utilization (Ratio)
system.tol2bus.respLayer1.occupancy          49586498                       # Layer occupancy (ticks) (Tick)
system.tol2bus.respLayer1.utilization             0.0                       # Layer utilization (Ratio)
system.tol2bus.snoop_filter.totRequests         74514                       # Total number of requests made to the snoop filter. (Count)
system.tol2bus.snoop_filter.hitSingleRequests        37001                       # Number of requests hitting in the snoop filter with a single holder of the requested data. (Count)
system.tol2bus.snoop_filter.hitMultiRequests           13                       # Number of requests hitting in the snoop filter with multiple (>1) holders of the requested data. (Count)
system.tol2bus.snoop_filter.totSnoops             939                       # Total number of snoops made to the snoop filter. (Count)
system.tol2bus.snoop_filter.hitSingleSnoops          938                       # Number of snoops hitting in the snoop filter with a single holder of the requested data. (Count)
system.tol2bus.snoop_filter.hitMultiSnoops            1                       # Number of snoops hitting in the snoop filter with multiple (>1) holders of the requested data. (Count)
system.voltage_domain.voltage                       1                       # Voltage in Volts (Volt)
system.workload.inst.arm                            0                       # number of arm instructions executed (Count)
system.workload.inst.quiesce                        0                       # number of quiesce instructions executed (Count)

---------- End Simulation Statistics   ----------
