Global frequency set at 1000000000000 ticks per second
gem5 Simulator System.  http://gem5.org
gem5 is copyrighted software; use the --copyright option for details.

gem5 version 21.2.1.0
gem5 compiled Apr 23 2022 12:55:36
gem5 started Apr 23 2022 12:58:33
gem5 executing on DESKTOP-LUSP1G5, pid 5711
command line: build/X86/gem5.opt configs/example/se.py --cmd=gapbs/bfs '--options=-g 15 -n 1' --l1i_size=16kB --l1i_assoc=2 --cacheline_size=64 --l1d_size=16kB --l1d_assoc=2 --cacheline_size=64 --l2_size=128kB --l2_assoc=8 --cacheline_size=64 --caches --l2cache --cpu-type=DerivO3CPU -I 50000000

**** REAL SIMULATION ****
Tracksize = 1.
load barrier size = 0.
store barrier size = 0.
Tracksize = 2.
load barrier size = 0.
store barrier size = 0.
Tracksize = 1.
load barrier size = 0.
store barrier size = 0.
Tracksize = 1.
load barrier size = 0.
store barrier size = 0.
Tracksize = 2.
load barrier size = 0.
store barrier size = 0.
Tracksize = 3.
load barrier size = 0.
store barrier size = 0.
Tracksize = 4.
load barrier size = 0.
store barrier size = 0.
Tracksize = 5.
load barrier size = 0.
store barrier size = 0.
Tracksize = 6.
load barrier size = 0.
store barrier size = 0.
Tracksize = 7.
load barrier size = 0.
store barrier size = 0.
Tracksize = 8.
load barrier size = 0.
store barrier size = 0.
Tracksize = 9.
load barrier size = 0.
store barrier size = 0.
Tracksize = 10.
load barrier size = 0.
store barrier size = 0.
Tracksize = 11.
load barrier size = 0.
store barrier size = 0.
Tracksize = 12.
load barrier size = 0.
store barrier size = 0.
Tracksize = 13.
load barrier size = 0.
store barrier size = 0.
Tracksize = 14.
load barrier size = 0.
store barrier size = 0.
Tracksize = 15.
load barrier size = 0.
store barrier size = 0.
Tracksize = 13.
load barrier size = 0.
store barrier size = 0.
Tracksize = 14.
load barrier size = 0.
store barrier size = 0.
Tracksize = 14.
load barrier size = 0.
store barrier size = 0.
Tracksize = 14.
load barrier size = 0.
store barrier size = 0.
Tracksize = 14.
load barrier size = 0.
store barrier size = 0.
Tracksize = 14.
load barrier size = 0.
store barrier size = 0.
Tracksize = 14.
load barrier size = 0.
store barrier size = 0.
Tracksize = 14.
load barrier size = 0.
store barrier size = 0.
Tracksize = 14.
load barrier size = 0.
store barrier size = 0.
Tracksize = 14.
load barrier size = 0.
store barrier size = 0.
Tracksize = 14.
load barrier size = 0.
store barrier size = 0.
Tracksize = 14.
load barrier size = 0.
store barrier size = 0.
Tracksize = 15.
load barrier size = 0.
store barrier size = 0.
Tracksize = 15.
load barrier size = 0.
store barrier size = 0.
Tracksize = 15.
load barrier size = 0.
store barrier size = 0.
Tracksize = 15.
load barrier size = 0.
store barrier size = 0.
Tracksize = 15.
load barrier size = 0.
store barrier size = 0.
Tracksize = 15.
load barrier size = 0.
store barrier size = 0.
Tracksize = 15.
load barrier size = 0.
store barrier size = 0.
Tracksize = 15.
load barrier size = 0.
store barrier size = 0.
Tracksize = 15.
load barrier size = 0.
store barrier size = 0.
Tracksize = 15.
load barrier size = 0.
store barrier size = 0.
Tracksize = 15.
load barrier size = 0.
store barrier size = 0.
Tracksize = 15.
load barrier size = 0.
store barrier size = 0.
Tracksize = 15.
load barrier size = 0.
store barrier size = 0.
Tracksize = 15.
load barrier size = 0.
store barrier size = 0.
Tracksize = 15.
load barrier size = 0.
store barrier size = 0.
Tracksize = 16.
load barrier size = 0.
store barrier size = 0.
Tracksize = 15.
load barrier size = 0.
store barrier size = 0.
Tracksize = 16.
load barrier size = 0.
store barrier size = 0.
Tracksize = 15.
load barrier size = 0.
store barrier size = 0.
Tracksize = 16.
load barrier size = 0.
store barrier size = 0.
Tracksize = 17.
load barrier size = 0.
store barrier size = 0.
Tracksize = 15.
load barrier size = 0.
store barrier size = 0.
Tracksize = 16.
load barrier size = 0.
store barrier size = 0.
Tracksize = 16.
load barrier size = 0.
store barrier size = 0.
Tracksize = 16.
load barrier size = 0.
store barrier size = 0.
Tracksize = 16.
load barrier size = 0.
store barrier size = 0.
Tracksize = 17.
load barrier size = 0.
store barrier size = 0.
Tracksize = 16.
load barrier size = 0.
store barrier size = 0.
Tracksize = 17.
load barrier size = 0.
store barrier size = 0.
Tracksize = 16.
load barrier size = 0.
store barrier size = 0.
Tracksize = 17.
load barrier size = 0.
store barrier size = 0.
Tracksize = 16.
load barrier size = 0.
store barrier size = 0.
Tracksize = 17.
load barrier size = 0.
store barrier size = 0.
Tracksize = 16.
load barrier size = 0.
store barrier size = 0.
Tracksize = 17.
load barrier size = 0.
store barrier size = 0.
Tracksize = 18.
load barrier size = 0.
store barrier size = 0.
Tracksize = 19.
load barrier size = 0.
store barrier size = 0.
Tracksize = 20.
load barrier size = 0.
store barrier size = 0.
Tracksize = 21.
load barrier size = 0.
store barrier size = 0.
Tracksize = 19.
load barrier size = 0.
store barrier size = 0.
Tracksize = 20.
load barrier size = 0.
store barrier size = 0.
Tracksize = 21.
load barrier size = 0.
store barrier size = 0.
Tracksize = 19.
load barrier size = 0.
store barrier size = 0.
Tracksize = 20.
load barrier size = 0.
store barrier size = 0.
Tracksize = 21.
load barrier size = 0.
store barrier size = 0.
Tracksize = 22.
load barrier size = 0.
store barrier size = 0.
Tracksize = 23.
load barrier size = 0.
store barrier size = 0.
Tracksize = 24.
load barrier size = 0.
store barrier size = 0.
Tracksize = 22.
load barrier size = 0.
store barrier size = 0.
Tracksize = 22.
load barrier size = 0.
store barrier size = 0.
Tracksize = 22.
load barrier size = 0.
store barrier size = 0.
Tracksize = 22.
load barrier size = 0.
store barrier size = 0.
Tracksize = 23.
load barrier size = 0.
store barrier size = 0.
Tracksize = 23.
load barrier size = 0.
store barrier size = 0.
Tracksize = 23.
load barrier size = 0.
store barrier size = 0.
Tracksize = 23.
load barrier size = 0.
store barrier size = 0.
Tracksize = 24.
load barrier size = 0.
store barrier size = 0.
Tracksize = 23.
load barrier size = 0.
store barrier size = 0.
Tracksize = 23.
load barrier size = 0.
store barrier size = 0.
Tracksize = 23.
load barrier size = 0.
store barrier size = 0.
Tracksize = 24.
load barrier size = 0.
store barrier size = 0.
Tracksize = 23.
load barrier size = 0.
store barrier size = 0.
Tracksize = 24.
load barrier size = 0.
store barrier size = 0.
Tracksize = 23.
load barrier size = 0.
store barrier size = 0.
Tracksize = 24.
load barrier size = 0.
store barrier size = 0.
Tracksize = 24.
load barrier size = 0.
store barrier size = 0.
Tracksize = 25.
load barrier size = 0.
store barrier size = 0.
Tracksize = 24.
load barrier size = 0.
store barrier size = 0.
Tracksize = 23.
load barrier size = 0.
store barrier size = 0.
Tracksize = 24.
load barrier size = 0.
store barrier size = 0.
Tracksize = 23.
load barrier size = 0.
store barrier size = 0.
Tracksize = 23.
load barrier size = 0.
store barrier size = 0.
Tracksize = 24.
load barrier size = 0.
store barrier size = 0.
Tracksize = 25.
load barrier size = 0.
store barrier size = 0.
Tracksize = 23.
load barrier size = 0.
store barrier size = 0.
Tracksize = 24.
load barrier size = 0.
store barrier size = 0.
Tracksize = 25.
load barrier size = 0.
store barrier size = 0.
Tracksize = 23.
load barrier size = 0.
store barrier size = 0.
Tracksize = 24.
load barrier size = 0.
store barrier size = 0.
Tracksize = 25.
load barrier size = 0.
store barrier size = 0.
Tracksize = 26.
load barrier size = 0.
store barrier size = 0.
Tracksize = 27.
load barrier size = 0.
store barrier size = 0.
Tracksize = 28.
load barrier size = 0.
store barrier size = 0.
Tracksize = 29.
load barrier size = 0.
store barrier size = 0.
Tracksize = 30.
load barrier size = 0.
store barrier size = 0.
Tracksize = 31.
load barrier size = 0.
store barrier size = 0.
Tracksize = 30.
load barrier size = 0.
store barrier size = 0.
Tracksize = 31.
load barrier size = 0.
store barrier size = 0.
Tracksize = 32.
load barrier size = 0.
store barrier size = 0.
Tracksize = 33.
load barrier size = 0.
store barrier size = 0.
Tracksize = 34.
load barrier size = 0.
store barrier size = 0.
Tracksize = 35.
load barrier size = 0.
store barrier size = 0.
Tracksize = 36.
load barrier size = 0.
store barrier size = 0.
Tracksize = 37.
load barrier size = 0.
store barrier size = 0.
Tracksize = 38.
load barrier size = 0.
store barrier size = 0.
Tracksize = 39.
load barrier size = 0.
store barrier size = 0.
Tracksize = 40.
load barrier size = 0.
store barrier size = 0.
Tracksize = 41.
load barrier size = 0.
store barrier size = 0.
Tracksize = 42.
load barrier size = 0.
store barrier size = 0.
Tracksize = 43.
load barrier size = 0.
store barrier size = 0.
Tracksize = 44.
load barrier size = 0.
store barrier size = 0.
Tracksize = 45.
load barrier size = 0.
store barrier size = 0.
Tracksize = 46.
load barrier size = 0.
store barrier size = 0.
Tracksize = 47.
load barrier size = 0.
store barrier size = 0.
Tracksize = 48.
load barrier size = 0.
store barrier size = 0.
Tracksize = 49.
load barrier size = 0.
store barrier size = 0.
Tracksize = 50.
load barrier size = 0.
store barrier size = 0.
Tracksize = 51.
load barrier size = 0.
store barrier size = 0.
Tracksize = 52.
load barrier size = 0.
store barrier size = 0.
Tracksize = 53.
load barrier size = 0.
store barrier size = 0.
Tracksize = 54.
load barrier size = 0.
store barrier size = 0.
Tracksize = 55.
load barrier size = 0.
store barrier size = 0.
Tracksize = 56.
load barrier size = 0.
store barrier size = 0.
Tracksize = 57.
load barrier size = 0.
store barrier size = 0.
Tracksize = 58.
load barrier size = 0.
store barrier size = 0.
Tracksize = 59.
load barrier size = 0.
store barrier size = 0.
Tracksize = 58.
load barrier size = 0.
store barrier size = 0.
Tracksize = 59.
load barrier size = 0.
store barrier size = 0.
Tracksize = 51.
load barrier size = 0.
store barrier size = 0.
Tracksize = 52.
load barrier size = 0.
store barrier size = 0.
Tracksize = 53.
load barrier size = 0.
store barrier size = 0.
Tracksize = 51.
load barrier size = 0.
store barrier size = 0.
Tracksize = 52.
load barrier size = 0.
store barrier size = 0.
Tracksize = 53.
load barrier size = 0.
store barrier size = 0.
Tracksize = 51.
load barrier size = 0.
store barrier size = 0.
Tracksize = 52.
load barrier size = 0.
store barrier size = 0.
Tracksize = 52.
load barrier size = 0.
store barrier size = 0.
Tracksize = 53.
load barrier size = 0.
store barrier size = 0.
Tracksize = 54.
load barrier size = 0.
store barrier size = 0.
Tracksize = 55.
load barrier size = 0.
store barrier size = 0.
Tracksize = 56.
load barrier size = 0.
store barrier size = 0.
Tracksize = 54.
load barrier size = 0.
store barrier size = 0.
Tracksize = 54.
load barrier size = 0.
store barrier size = 0.
Tracksize = 54.
load barrier size = 0.
store barrier size = 0.
Tracksize = 54.
load barrier size = 0.
store barrier size = 0.
Tracksize = 55.
load barrier size = 0.
store barrier size = 0.
Tracksize = 55.
load barrier size = 0.
store barrier size = 0.
Tracksize = 55.
load barrier size = 0.
store barrier size = 0.
Tracksize = 55.
load barrier size = 0.
store barrier size = 0.
Tracksize = 55.
load barrier size = 0.
store barrier size = 0.
Tracksize = 55.
load barrier size = 0.
store barrier size = 0.
Tracksize = 55.
load barrier size = 0.
store barrier size = 0.
Tracksize = 55.
load barrier size = 0.
store barrier size = 0.
Tracksize = 55.
load barrier size = 0.
store barrier size = 0.
Tracksize = 56.
load barrier size = 0.
store barrier size = 0.
Tracksize = 55.
load barrier size = 0.
store barrier size = 0.
Tracksize = 55.
load barrier size = 0.
store barrier size = 0.
Tracksize = 56.
load barrier size = 0.
store barrier size = 0.
Tracksize = 55.
load barrier size = 0.
store barrier size = 0.
Tracksize = 55.
load barrier size = 0.
store barrier size = 0.
Tracksize = 55.
load barrier size = 0.
store barrier size = 0.
Tracksize = 55.
load barrier size = 0.
store barrier size = 0.
Tracksize = 56.
load barrier size = 0.
store barrier size = 0.
Tracksize = 57.
load barrier size = 0.
store barrier size = 0.
Tracksize = 56.
load barrier size = 0.
store barrier size = 0.
Tracksize = 57.
load barrier size = 0.
store barrier size = 0.
Tracksize = 58.
load barrier size = 0.
store barrier size = 0.
Tracksize = 59.
load barrier size = 0.
store barrier size = 0.
Tracksize = 60.
load barrier size = 0.
store barrier size = 0.
Tracksize = 61.
load barrier size = 0.
store barrier size = 0.
Tracksize = 62.
load barrier size = 0.
store barrier size = 0.
Tracksize = 63.
load barrier size = 0.
store barrier size = 0.
Tracksize = 64.
load barrier size = 0.
store barrier size = 0.
Tracksize = 56.
load barrier size = 0.
store barrier size = 0.
Tracksize = 56.
load barrier size = 0.
store barrier size = 0.
Tracksize = 57.
load barrier size = 0.
store barrier size = 0.
Tracksize = 58.
load barrier size = 0.
store barrier size = 0.
Tracksize = 56.
load barrier size = 0.
store barrier size = 0.
Tracksize = 57.
load barrier size = 0.
store barrier size = 0.
Tracksize = 58.
load barrier size = 0.
store barrier size = 0.
Tracksize = 56.
load barrier size = 0.
store barrier size = 0.
Tracksize = 56.
load barrier size = 0.
store barrier size = 0.
Tracksize = 56.
load barrier size = 0.
store barrier size = 0.
Tracksize = 57.
load barrier size = 0.
store barrier size = 0.
Tracksize = 58.
load barrier size = 0.
store barrier size = 0.
Tracksize = 59.
load barrier size = 0.
store barrier size = 0.
Tracksize = 57.
load barrier size = 0.
store barrier size = 0.
Tracksize = 58.
load barrier size = 0.
store barrier size = 0.
Tracksize = 57.
load barrier size = 0.
store barrier size = 0.
Tracksize = 57.
load barrier size = 0.
store barrier size = 0.
Tracksize = 58.
load barrier size = 0.
store barrier size = 0.
Tracksize = 59.
load barrier size = 0.
store barrier size = 0.
Tracksize = 58.
load barrier size = 0.
store barrier size = 0.
Tracksize = 59.
load barrier size = 0.
store barrier size = 0.
Tracksize = 58.
load barrier size = 0.
store barrier size = 0.
Tracksize = 59.
load barrier size = 0.
store barrier size = 0.
Tracksize = 59.
load barrier size = 0.
store barrier size = 0.
Tracksize = 60.
load barrier size = 0.
store barrier size = 0.
Tracksize = 61.
load barrier size = 0.
store barrier size = 0.
Tracksize = 60.
load barrier size = 0.
store barrier size = 0.
Tracksize = 60.
load barrier size = 0.
store barrier size = 0.
Tracksize = 61.
load barrier size = 0.
store barrier size = 0.
Tracksize = 62.
load barrier size = 0.
store barrier size = 0.
Tracksize = 63.
load barrier size = 0.
store barrier size = 0.
Tracksize = 61.
load barrier size = 0.
store barrier size = 0.
Tracksize = 62.
load barrier size = 0.
store barrier size = 0.
Tracksize = 61.
load barrier size = 0.
store barrier size = 0.
Tracksize = 61.
load barrier size = 0.
store barrier size = 0.
Tracksize = 62.
load barrier size = 0.
store barrier size = 0.
Tracksize = 61.
load barrier size = 0.
store barrier size = 0.
Tracksize = 61.
load barrier size = 0.
store barrier size = 0.
Tracksize = 62.
load barrier size = 0.
store barrier size = 0.
Tracksize = 61.
load barrier size = 0.
store barrier size = 0.
Tracksize = 61.
load barrier size = 0.
store barrier size = 0.
Tracksize = 62.
load barrier size = 0.
store barrier size = 0.
Tracksize = 63.
load barrier size = 0.
store barrier size = 0.
Tracksize = 64.
load barrier size = 0.
store barrier size = 0.
Tracksize = 61.
load barrier size = 0.
store barrier size = 0.
Tracksize = 62.
load barrier size = 0.
store barrier size = 0.
Tracksize = 61.
load barrier size = 0.
store barrier size = 0.
Tracksize = 62.
load barrier size = 0.
store barrier size = 0.
Tracksize = 61.
load barrier size = 0.
store barrier size = 0.
Tracksize = 61.
load barrier size = 0.
store barrier size = 0.
Tracksize = 62.
load barrier size = 0.
store barrier size = 0.
Tracksize = 61.
load barrier size = 0.
store barrier size = 0.
Tracksize = 62.
load barrier size = 0.
store barrier size = 0.
Tracksize = 63.
load barrier size = 0.
store barrier size = 0.
Tracksize = 64.
load barrier size = 0.
store barrier size = 0.
Tracksize = 65.
load barrier size = 0.
store barrier size = 0.
Tracksize = 66.
load barrier size = 0.
store barrier size = 0.
Tracksize = 63.
load barrier size = 0.
store barrier size = 0.
Tracksize = 64.
load barrier size = 0.
store barrier size = 0.
Tracksize = 63.
load barrier size = 0.
store barrier size = 0.
Tracksize = 64.
load barrier size = 0.
store barrier size = 0.
Tracksize = 65.
load barrier size = 0.
store barrier size = 0.
Tracksize = 66.
load barrier size = 0.
store barrier size = 0.
Tracksize = 67.
load barrier size = 0.
store barrier size = 0.
Tracksize = 68.
load barrier size = 0.
store barrier size = 0.
Tracksize = 66.
load barrier size = 0.
store barrier size = 0.
Tracksize = 67.
load barrier size = 0.
store barrier size = 0.
Tracksize = 68.
load barrier size = 0.
store barrier size = 0.
Tracksize = 69.
load barrier size = 0.
store barrier size = 0.
Tracksize = 70.
load barrier size = 0.
store barrier size = 0.
Tracksize = 71.
load barrier size = 0.
store barrier size = 0.
Tracksize = 72.
load barrier size = 0.
store barrier size = 0.
Tracksize = 73.
load barrier size = 0.
store barrier size = 0.
Tracksize = 74.
load barrier size = 0.
store barrier size = 0.
Tracksize = 75.
load barrier size = 0.
store barrier size = 0.
Tracksize = 76.
load barrier size = 0.
store barrier size = 0.
Tracksize = 77.
load barrier size = 0.
store barrier size = 0.
Tracksize = 78.
load barrier size = 0.
store barrier size = 0.
Tracksize = 79.
load barrier size = 0.
store barrier size = 0.
Tracksize = 79.
load barrier size = 0.
store barrier size = 0.
Tracksize = 79.
load barrier size = 0.
store barrier size = 0.
Tracksize = 79.
load barrier size = 0.
store barrier size = 0.
Tracksize = 80.
load barrier size = 0.
store barrier size = 0.
Tracksize = 81.
load barrier size = 0.
store barrier size = 0.
Tracksize = 81.
load barrier size = 0.
store barrier size = 0.
Tracksize = 82.
load barrier size = 0.
store barrier size = 0.
Tracksize = 82.
load barrier size = 0.
store barrier size = 0.
Tracksize = 82.
load barrier size = 0.
store barrier size = 0.
Tracksize = 82.
load barrier size = 0.
store barrier size = 0.
Tracksize = 83.
load barrier size = 0.
store barrier size = 0.
Tracksize = 84.
load barrier size = 0.
store barrier size = 0.
Tracksize = 84.
load barrier size = 0.
store barrier size = 0.
Tracksize = 84.
load barrier size = 0.
store barrier size = 0.
Tracksize = 85.
load barrier size = 0.
store barrier size = 0.
Tracksize = 86.
load barrier size = 0.
store barrier size = 0.
Tracksize = 86.
load barrier size = 0.
store barrier size = 0.
Tracksize = 87.
load barrier size = 0.
store barrier size = 0.
Tracksize = 86.
load barrier size = 0.
store barrier size = 0.
Tracksize = 87.
load barrier size = 0.
store barrier size = 0.
Tracksize = 86.
load barrier size = 0.
store barrier size = 0.
Tracksize = 86.
load barrier size = 0.
store barrier size = 0.
Tracksize = 87.
load barrier size = 0.
store barrier size = 0.
Tracksize = 86.
load barrier size = 0.
store barrier size = 0.
Tracksize = 87.
load barrier size = 0.
store barrier size = 0.
Tracksize = 86.
load barrier size = 0.
store barrier size = 0.
Tracksize = 86.
load barrier size = 0.
store barrier size = 0.
Tracksize = 86.
load barrier size = 0.
store barrier size = 0.
Tracksize = 86.
load barrier size = 0.
store barrier size = 0.
Tracksize = 86.
load barrier size = 0.
store barrier size = 0.
Tracksize = 87.
load barrier size = 0.
store barrier size = 0.
Tracksize = 88.
load barrier size = 0.
store barrier size = 0.
Tracksize = 86.
load barrier size = 0.
store barrier size = 0.
Tracksize = 87.
load barrier size = 0.
store barrier size = 0.
Tracksize = 88.
load barrier size = 0.
store barrier size = 0.
Tracksize = 89.
load barrier size = 0.
store barrier size = 0.
Tracksize = 86.
load barrier size = 0.
store barrier size = 0.
Tracksize = 86.
load barrier size = 0.
store barrier size = 0.
Tracksize = 86.
load barrier size = 0.
store barrier size = 0.
Tracksize = 86.
load barrier size = 0.
store barrier size = 0.
Tracksize = 86.
load barrier size = 0.
store barrier size = 0.
Tracksize = 86.
load barrier size = 0.
store barrier size = 0.
Tracksize = 86.
load barrier size = 0.
store barrier size = 0.
Tracksize = 86.
load barrier size = 0.
store barrier size = 0.
Tracksize = 86.
load barrier size = 0.
store barrier size = 0.
Tracksize = 86.
load barrier size = 0.
store barrier size = 0.
Tracksize = 86.
load barrier size = 0.
store barrier size = 0.
Tracksize = 86.
load barrier size = 0.
store barrier size = 0.
Tracksize = 86.
load barrier size = 0.
store barrier size = 0.
Tracksize = 86.
load barrier size = 0.
store barrier size = 0.
Tracksize = 86.
load barrier size = 0.
store barrier size = 0.
Tracksize = 86.
load barrier size = 0.
store barrier size = 0.
Tracksize = 86.
load barrier size = 0.
store barrier size = 0.
Tracksize = 86.
load barrier size = 0.
store barrier size = 0.
Tracksize = 86.
load barrier size = 0.
store barrier size = 0.
Tracksize = 86.
load barrier size = 0.
store barrier size = 0.
Tracksize = 86.
load barrier size = 0.
store barrier size = 0.
Tracksize = 86.
load barrier size = 0.
store barrier size = 0.
Tracksize = 86.
load barrier size = 0.
store barrier size = 0.
Tracksize = 86.
load barrier size = 0.
store barrier size = 0.
Tracksize = 86.
load barrier size = 0.
store barrier size = 0.
Tracksize = 86.
load barrier size = 0.
store barrier size = 0.
Tracksize = 86.
load barrier size = 0.
store barrier size = 0.
Tracksize = 86.
load barrier size = 0.
store barrier size = 0.
Tracksize = 87.
load barrier size = 0.
store barrier size = 0.
Tracksize = 87.
load barrier size = 0.
store barrier size = 0.
Tracksize = 87.
load barrier size = 0.
store barrier size = 0.
Tracksize = 87.
load barrier size = 0.
store barrier size = 0.
Tracksize = 87.
load barrier size = 0.
store barrier size = 0.
Tracksize = 87.
load barrier size = 0.
store barrier size = 0.
Tracksize = 88.
load barrier size = 0.
store barrier size = 0.
Tracksize = 89.
load barrier size = 0.
store barrier size = 0.
Tracksize = 89.
load barrier size = 0.
store barrier size = 0.
Tracksize = 89.
load barrier size = 0.
store barrier size = 0.
Tracksize = 89.
load barrier size = 0.
store barrier size = 0.
Tracksize = 89.
load barrier size = 0.
store barrier size = 0.
Tracksize = 89.
load barrier size = 0.
store barrier size = 0.
Tracksize = 89.
load barrier size = 0.
store barrier size = 0.
Tracksize = 89.
load barrier size = 0.
store barrier size = 0.
Tracksize = 89.
load barrier size = 0.
store barrier size = 0.
Tracksize = 89.
load barrier size = 0.
store barrier size = 0.
Tracksize = 89.
load barrier size = 0.
store barrier size = 0.
Tracksize = 89.
load barrier size = 0.
store barrier size = 0.
Tracksize = 89.
load barrier size = 0.
store barrier size = 0.
Tracksize = 89.
load barrier size = 0.
store barrier size = 0.
Tracksize = 89.
load barrier size = 0.
store barrier size = 0.
Tracksize = 89.
load barrier size = 0.
store barrier size = 0.
Tracksize = 89.
load barrier size = 0.
store barrier size = 0.
Tracksize = 90.
load barrier size = 0.
store barrier size = 0.
Tracksize = 91.
load barrier size = 0.
store barrier size = 0.
Tracksize = 89.
load barrier size = 0.
store barrier size = 0.
Tracksize = 90.
load barrier size = 0.
store barrier size = 0.
Tracksize = 90.
load barrier size = 0.
store barrier size = 0.
Tracksize = 89.
load barrier size = 0.
store barrier size = 0.
Tracksize = 89.
load barrier size = 0.
store barrier size = 0.
Tracksize = 89.
load barrier size = 0.
store barrier size = 0.
Tracksize = 89.
load barrier size = 0.
store barrier size = 0.
Tracksize = 90.
load barrier size = 0.
store barrier size = 0.
Tracksize = 91.
load barrier size = 0.
store barrier size = 0.
Tracksize = 92.
load barrier size = 0.
store barrier size = 0.
Tracksize = 92.
load barrier size = 0.
store barrier size = 0.
Tracksize = 93.
load barrier size = 0.
store barrier size = 0.
Tracksize = 93.
load barrier size = 0.
store barrier size = 0.
Tracksize = 93.
load barrier size = 0.
store barrier size = 0.
Tracksize = 93.
load barrier size = 0.
store barrier size = 0.
Tracksize = 93.
load barrier size = 0.
store barrier size = 0.
Tracksize = 93.
load barrier size = 0.
store barrier size = 0.
Tracksize = 93.
load barrier size = 0.
store barrier size = 0.
Tracksize = 93.
load barrier size = 0.
store barrier size = 0.
Tracksize = 93.
load barrier size = 0.
store barrier size = 0.
Tracksize = 93.
load barrier size = 0.
store barrier size = 0.
Tracksize = 93.
load barrier size = 0.
store barrier size = 0.
Tracksize = 94.
load barrier size = 0.
store barrier size = 0.
Tracksize = 95.
load barrier size = 0.
store barrier size = 0.
Tracksize = 93.
load barrier size = 0.
store barrier size = 0.
Tracksize = 94.
load barrier size = 0.
store barrier size = 0.
Tracksize = 93.
load barrier size = 0.
store barrier size = 0.
Tracksize = 93.
load barrier size = 0.
store barrier size = 0.
Tracksize = 94.
load barrier size = 0.
store barrier size = 0.
Tracksize = 93.
load barrier size = 0.
store barrier size = 0.
Tracksize = 93.
load barrier size = 0.
store barrier size = 0.
Tracksize = 93.
load barrier size = 0.
store barrier size = 0.
Tracksize = 94.
load barrier size = 0.
store barrier size = 0.
Tracksize = 95.
load barrier size = 0.
store barrier size = 0.
Tracksize = 93.
load barrier size = 0.
store barrier size = 0.
Tracksize = 94.
load barrier size = 0.
store barrier size = 0.
Tracksize = 93.
load barrier size = 0.
store barrier size = 0.
Tracksize = 93.
load barrier size = 0.
store barrier size = 0.
Tracksize = 94.
load barrier size = 0.
store barrier size = 0.
Tracksize = 95.
load barrier size = 0.
store barrier size = 0.
Tracksize = 96.
load barrier size = 0.
store barrier size = 0.
Tracksize = 93.
load barrier size = 0.
store barrier size = 0.
Tracksize = 93.
load barrier size = 0.
store barrier size = 0.
Tracksize = 94.
load barrier size = 0.
store barrier size = 0.
Tracksize = 95.
load barrier size = 0.
store barrier size = 0.
Tracksize = 95.
load barrier size = 0.
store barrier size = 0.
Tracksize = 95.
load barrier size = 0.
store barrier size = 0.
Tracksize = 95.
load barrier size = 0.
store barrier size = 0.
Tracksize = 96.
load barrier size = 0.
store barrier size = 0.
Tracksize = 95.
load barrier size = 0.
store barrier size = 0.
Tracksize = 95.
load barrier size = 0.
store barrier size = 0.
Tracksize = 95.
load barrier size = 0.
store barrier size = 0.
Tracksize = 95.
load barrier size = 0.
store barrier size = 0.
Tracksize = 96.
load barrier size = 0.
store barrier size = 0.
Tracksize = 97.
load barrier size = 0.
store barrier size = 0.
Tracksize = 98.
load barrier size = 0.
store barrier size = 0.
Tracksize = 97.
load barrier size = 0.
store barrier size = 0.
Tracksize = 97.
load barrier size = 0.
store barrier size = 0.
Tracksize = 97.
load barrier size = 0.
store barrier size = 0.
Tracksize = 98.
load barrier size = 0.
store barrier size = 0.
Tracksize = 97.
load barrier size = 0.
store barrier size = 0.
Tracksize = 98.
load barrier size = 0.
store barrier size = 0.
Tracksize = 99.
load barrier size = 0.
store barrier size = 0.
Tracksize = 98.
load barrier size = 0.
store barrier size = 0.
Tracksize = 98.
load barrier size = 0.
store barrier size = 0.
Tracksize = 99.
load barrier size = 0.
store barrier size = 0.
Tracksize = 100.
load barrier size = 0.
store barrier size = 0.
Tracksize = 99.
load barrier size = 0.
store barrier size = 0.
Tracksize = 99.
load barrier size = 0.
store barrier size = 0.
Tracksize = 99.
load barrier size = 0.
store barrier size = 0.
Tracksize = 100.
load barrier size = 0.
store barrier size = 0.
Tracksize = 99.
load barrier size = 0.
store barrier size = 0.
Tracksize = 99.
load barrier size = 0.
store barrier size = 0.
Tracksize = 100.
load barrier size = 0.
store barrier size = 0.
Tracksize = 101.
load barrier size = 0.
store barrier size = 0.
Tracksize = 99.
load barrier size = 0.
store barrier size = 0.
Tracksize = 99.
load barrier size = 0.
store barrier size = 0.
Tracksize = 100.
load barrier size = 0.
store barrier size = 0.
Tracksize = 99.
load barrier size = 0.
store barrier size = 0.
Tracksize = 99.
load barrier size = 0.
store barrier size = 0.
Tracksize = 99.
load barrier size = 0.
store barrier size = 0.
Tracksize = 99.
load barrier size = 0.
store barrier size = 0.
Tracksize = 100.
load barrier size = 0.
store barrier size = 0.
Tracksize = 99.
load barrier size = 0.
store barrier size = 0.
Tracksize = 99.
load barrier size = 0.
store barrier size = 0.
Tracksize = 99.
load barrier size = 0.
store barrier size = 0.
Tracksize = 100.
load barrier size = 0.
store barrier size = 0.
Tracksize = 101.
load barrier size = 0.
store barrier size = 0.
Tracksize = 102.
load barrier size = 0.
store barrier size = 0.
Tracksize = 103.
load barrier size = 0.
store barrier size = 0.
Tracksize = 101.
load barrier size = 0.
store barrier size = 0.
Tracksize = 101.
load barrier size = 0.
store barrier size = 0.
Tracksize = 102.
load barrier size = 0.
store barrier size = 0.
Tracksize = 101.
load barrier size = 0.
store barrier size = 0.
Tracksize = 102.
load barrier size = 0.
store barrier size = 0.
Tracksize = 101.
load barrier size = 0.
store barrier size = 0.
Tracksize = 102.
load barrier size = 0.
store barrier size = 0.
Tracksize = 101.
load barrier size = 0.
store barrier size = 0.
Tracksize = 101.
load barrier size = 0.
store barrier size = 0.
Tracksize = 102.
load barrier size = 0.
store barrier size = 0.
Tracksize = 103.
load barrier size = 0.
store barrier size = 0.
Tracksize = 104.
load barrier size = 0.
store barrier size = 0.
Tracksize = 105.
load barrier size = 0.
store barrier size = 0.
Tracksize = 103.
load barrier size = 0.
store barrier size = 0.
Tracksize = 103.
load barrier size = 0.
store barrier size = 0.
Tracksize = 104.
load barrier size = 0.
store barrier size = 0.
Tracksize = 103.
load barrier size = 0.
store barrier size = 0.
Tracksize = 104.
load barrier size = 0.
store barrier size = 0.
Tracksize = 103.
load barrier size = 0.
store barrier size = 0.
Tracksize = 103.
load barrier size = 0.
store barrier size = 0.
Tracksize = 104.
load barrier size = 0.
store barrier size = 0.
Tracksize = 105.
load barrier size = 0.
store barrier size = 0.
Tracksize = 104.
load barrier size = 0.
store barrier size = 0.
Tracksize = 105.
load barrier size = 0.
store barrier size = 0.
Tracksize = 106.
load barrier size = 0.
store barrier size = 0.
Tracksize = 107.
load barrier size = 0.
store barrier size = 0.
Tracksize = 108.
load barrier size = 0.
store barrier size = 0.
Tracksize = 109.
load barrier size = 0.
store barrier size = 0.
Tracksize = 107.
load barrier size = 0.
store barrier size = 0.
Tracksize = 107.
load barrier size = 0.
store barrier size = 0.
Tracksize = 108.
load barrier size = 0.
store barrier size = 0.
Tracksize = 107.
load barrier size = 0.
store barrier size = 0.
Tracksize = 108.
load barrier size = 0.
store barrier size = 0.
Tracksize = 107.
load barrier size = 0.
store barrier size = 0.
Tracksize = 108.
load barrier size = 0.
store barrier size = 0.
Tracksize = 107.
load barrier size = 0.
store barrier size = 0.
Tracksize = 107.
load barrier size = 0.
store barrier size = 0.
Tracksize = 108.
load barrier size = 0.
store barrier size = 0.
Tracksize = 107.
load barrier size = 0.
store barrier size = 0.
Tracksize = 107.
load barrier size = 0.
store barrier size = 0.
Tracksize = 108.
load barrier size = 0.
store barrier size = 0.
Tracksize = 109.
load barrier size = 0.
store barrier size = 0.
Tracksize = 107.
load barrier size = 0.
store barrier size = 0.
Tracksize = 108.
load barrier size = 0.
store barrier size = 0.
Tracksize = 107.
load barrier size = 0.
store barrier size = 0.
Tracksize = 108.
load barrier size = 0.
store barrier size = 0.
Tracksize = 107.
load barrier size = 0.
store barrier size = 0.
Tracksize = 107.
load barrier size = 0.
store barrier size = 0.
Tracksize = 108.
load barrier size = 0.
store barrier size = 0.
Tracksize = 109.
load barrier size = 0.
store barrier size = 0.
Tracksize = 110.
load barrier size = 0.
store barrier size = 0.
Tracksize = 111.
load barrier size = 0.
store barrier size = 0.
Tracksize = 110.
load barrier size = 0.
store barrier size = 0.
Tracksize = 110.
load barrier size = 0.
store barrier size = 0.
Tracksize = 111.
load barrier size = 0.
store barrier size = 0.
Tracksize = 110.
load barrier size = 0.
store barrier size = 0.
Tracksize = 111.
load barrier size = 0.
store barrier size = 0.
Tracksize = 110.
load barrier size = 0.
store barrier size = 0.
Tracksize = 110.
load barrier size = 0.
store barrier size = 0.
Tracksize = 110.
load barrier size = 0.
store barrier size = 0.
Tracksize = 111.
load barrier size = 0.
store barrier size = 0.
Tracksize = 112.
load barrier size = 0.
store barrier size = 0.
Tracksize = 113.
load barrier size = 0.
store barrier size = 0.
Tracksize = 114.
load barrier size = 0.
store barrier size = 0.
Tracksize = 112.
load barrier size = 0.
store barrier size = 0.
Tracksize = 112.
load barrier size = 0.
store barrier size = 0.
Tracksize = 113.
load barrier size = 0.
store barrier size = 0.
Tracksize = 112.
load barrier size = 0.
store barrier size = 0.
Tracksize = 113.
load barrier size = 0.
store barrier size = 0.
Tracksize = 112.
load barrier size = 0.
store barrier size = 0.
Tracksize = 113.
load barrier size = 0.
store barrier size = 0.
Tracksize = 113.
load barrier size = 0.
store barrier size = 0.
Tracksize = 114.
load barrier size = 0.
store barrier size = 0.
Tracksize = 112.
load barrier size = 0.
store barrier size = 0.
Tracksize = 112.
load barrier size = 0.
store barrier size = 0.
Tracksize = 112.
load barrier size = 0.
store barrier size = 0.
Tracksize = 113.
load barrier size = 0.
store barrier size = 0.
Tracksize = 114.
load barrier size = 0.
store barrier size = 0.
Tracksize = 115.
load barrier size = 0.
store barrier size = 0.
Tracksize = 116.
load barrier size = 0.
store barrier size = 0.
Tracksize = 117.
load barrier size = 0.
store barrier size = 0.
Tracksize = 116.
load barrier size = 0.
store barrier size = 0.
Tracksize = 117.
load barrier size = 0.
store barrier size = 0.
Tracksize = 118.
load barrier size = 0.
store barrier size = 0.
Tracksize = 119.
load barrier size = 0.
store barrier size = 0.
Tracksize = 120.
load barrier size = 0.
store barrier size = 0.
Tracksize = 121.
load barrier size = 0.
store barrier size = 0.
Tracksize = 120.
load barrier size = 0.
store barrier size = 0.
Tracksize = 120.
load barrier size = 0.
store barrier size = 0.
Tracksize = 120.
load barrier size = 0.
store barrier size = 0.
Tracksize = 121.
load barrier size = 0.
store barrier size = 0.
Tracksize = 120.
load barrier size = 0.
store barrier size = 0.
Tracksize = 120.
load barrier size = 0.
store barrier size = 0.
Tracksize = 120.
load barrier size = 0.
store barrier size = 0.
Tracksize = 121.
load barrier size = 0.
store barrier size = 0.
Tracksize = 122.
load barrier size = 0.
store barrier size = 0.
Tracksize = 122.
load barrier size = 0.
store barrier size = 0.
Tracksize = 122.
load barrier size = 0.
store barrier size = 0.
Tracksize = 122.
load barrier size = 0.
store barrier size = 0.
Tracksize = 123.
load barrier size = 0.
store barrier size = 0.
Tracksize = 122.
load barrier size = 0.
store barrier size = 0.
Tracksize = 122.
load barrier size = 0.
store barrier size = 0.
Tracksize = 123.
load barrier size = 0.
store barrier size = 0.
Tracksize = 124.
load barrier size = 0.
store barrier size = 0.
Tracksize = 123.
load barrier size = 0.
store barrier size = 0.
Tracksize = 123.
load barrier size = 0.
store barrier size = 0.
Tracksize = 124.
load barrier size = 0.
store barrier size = 0.
Tracksize = 125.
load barrier size = 0.
store barrier size = 0.
Tracksize = 123.
load barrier size = 0.
store barrier size = 0.
Tracksize = 124.
load barrier size = 0.
store barrier size = 0.
Tracksize = 123.
load barrier size = 0.
store barrier size = 0.
Tracksize = 123.
load barrier size = 0.
store barrier size = 0.
Tracksize = 124.
load barrier size = 0.
store barrier size = 0.
Tracksize = 125.
load barrier size = 0.
store barrier size = 0.
Tracksize = 126.
load barrier size = 0.
store barrier size = 0.
Tracksize = 127.
load barrier size = 0.
store barrier size = 0.
Tracksize = 126.
load barrier size = 0.
store barrier size = 0.
Tracksize = 127.
load barrier size = 0.
store barrier size = 0.
Tracksize = 128.
load barrier size = 0.
store barrier size = 0.
Tracksize = 129.
load barrier size = 0.
store barrier size = 0.
Tracksize = 129.
load barrier size = 0.
store barrier size = 0.
Tracksize = 130.
load barrier size = 0.
store barrier size = 0.
Tracksize = 131.
load barrier size = 0.
store barrier size = 0.
Tracksize = 129.
load barrier size = 0.
store barrier size = 0.
Tracksize = 130.
load barrier size = 0.
store barrier size = 0.
Tracksize = 129.
load barrier size = 0.
store barrier size = 0.
Tracksize = 129.
load barrier size = 0.
store barrier size = 0.
Tracksize = 129.
load barrier size = 0.
store barrier size = 0.
Tracksize = 130.
load barrier size = 0.
store barrier size = 0.
Tracksize = 131.
load barrier size = 0.
store barrier size = 0.
Tracksize = 130.
load barrier size = 0.
store barrier size = 0.
Tracksize = 131.
load barrier size = 0.
store barrier size = 0.
Tracksize = 130.
load barrier size = 0.
store barrier size = 0.
Tracksize = 131.
load barrier size = 0.
store barrier size = 0.
Tracksize = 130.
load barrier size = 0.
store barrier size = 0.
Tracksize = 130.
load barrier size = 0.
store barrier size = 0.
Tracksize = 131.
load barrier size = 0.
store barrier size = 0.
Tracksize = 130.
load barrier size = 0.
store barrier size = 0.
Tracksize = 131.
load barrier size = 0.
store barrier size = 0.
Tracksize = 130.
load barrier size = 0.
store barrier size = 0.
Tracksize = 130.
load barrier size = 0.
store barrier size = 0.
Tracksize = 130.
load barrier size = 0.
store barrier size = 0.
Tracksize = 131.
load barrier size = 0.
store barrier size = 0.
Tracksize = 132.
load barrier size = 0.
store barrier size = 0.
Tracksize = 131.
load barrier size = 0.
store barrier size = 0.
Tracksize = 131.
load barrier size = 0.
store barrier size = 0.
Tracksize = 131.
load barrier size = 0.
store barrier size = 0.
Tracksize = 132.
load barrier size = 0.
store barrier size = 0.
Tracksize = 131.
load barrier size = 0.
store barrier size = 0.
Tracksize = 131.
load barrier size = 0.
store barrier size = 0.
Tracksize = 131.
load barrier size = 0.
store barrier size = 0.
Tracksize = 132.
load barrier size = 0.
store barrier size = 0.
Tracksize = 133.
load barrier size = 0.
store barrier size = 0.
Tracksize = 134.
load barrier size = 0.
store barrier size = 0.
Tracksize = 135.
load barrier size = 0.
store barrier size = 0.
Tracksize = 136.
load barrier size = 0.
store barrier size = 0.
Tracksize = 134.
load barrier size = 0.
store barrier size = 0.
Tracksize = 134.
load barrier size = 0.
store barrier size = 0.
Tracksize = 135.
load barrier size = 0.
store barrier size = 0.
Tracksize = 134.
load barrier size = 0.
store barrier size = 0.
Tracksize = 135.
load barrier size = 0.
store barrier size = 0.
Tracksize = 134.
load barrier size = 0.
store barrier size = 0.
Tracksize = 134.
load barrier size = 0.
store barrier size = 0.
Tracksize = 135.
load barrier size = 0.
store barrier size = 0.
Tracksize = 136.
load barrier size = 0.
store barrier size = 0.
Tracksize = 137.
load barrier size = 0.
store barrier size = 0.
Tracksize = 138.
load barrier size = 0.
store barrier size = 0.
Tracksize = 139.
load barrier size = 0.
store barrier size = 0.
Tracksize = 138.
load barrier size = 0.
store barrier size = 0.
Tracksize = 139.
load barrier size = 0.
store barrier size = 0.
Tracksize = 139.
load barrier size = 0.
store barrier size = 0.
Tracksize = 139.
load barrier size = 0.
store barrier size = 0.
Tracksize = 140.
load barrier size = 0.
store barrier size = 0.
Tracksize = 139.
load barrier size = 0.
store barrier size = 0.
Tracksize = 140.
load barrier size = 0.
store barrier size = 0.
Tracksize = 140.
load barrier size = 0.
store barrier size = 0.
Tracksize = 140.
load barrier size = 0.
store barrier size = 0.
Tracksize = 141.
load barrier size = 0.
store barrier size = 0.
Tracksize = 142.
load barrier size = 0.
store barrier size = 0.
Tracksize = 143.
load barrier size = 0.
store barrier size = 0.
Tracksize = 144.
load barrier size = 0.
store barrier size = 0.
Tracksize = 143.
load barrier size = 0.
store barrier size = 0.
Tracksize = 144.
load barrier size = 0.
store barrier size = 0.
Tracksize = 145.
load barrier size = 0.
store barrier size = 0.
Tracksize = 146.
load barrier size = 0.
store barrier size = 0.
Tracksize = 147.
load barrier size = 0.
store barrier size = 0.
Tracksize = 148.
load barrier size = 0.
store barrier size = 0.
Tracksize = 146.
load barrier size = 0.
store barrier size = 0.
Tracksize = 146.
load barrier size = 0.
store barrier size = 0.
Tracksize = 147.
load barrier size = 0.
store barrier size = 0.
Tracksize = 146.
load barrier size = 0.
store barrier size = 0.
Tracksize = 147.
load barrier size = 0.
store barrier size = 0.
Tracksize = 148.
load barrier size = 0.
store barrier size = 0.
Tracksize = 148.
load barrier size = 0.
store barrier size = 0.
Tracksize = 149.
load barrier size = 0.
store barrier size = 0.
Tracksize = 148.
load barrier size = 0.
store barrier size = 0.
Tracksize = 148.
load barrier size = 0.
store barrier size = 0.
Tracksize = 148.
load barrier size = 0.
store barrier size = 0.
Tracksize = 149.
load barrier size = 0.
store barrier size = 0.
Tracksize = 150.
load barrier size = 0.
store barrier size = 0.
Tracksize = 151.
load barrier size = 0.
store barrier size = 0.
Tracksize = 150.
load barrier size = 0.
store barrier size = 0.
Tracksize = 150.
load barrier size = 0.
store barrier size = 0.
Tracksize = 151.
load barrier size = 0.
store barrier size = 0.
Tracksize = 152.
load barrier size = 0.
store barrier size = 0.
Tracksize = 150.
load barrier size = 0.
store barrier size = 0.
Tracksize = 151.
load barrier size = 0.
store barrier size = 0.
Tracksize = 150.
load barrier size = 0.
store barrier size = 0.
Tracksize = 150.
load barrier size = 0.
store barrier size = 0.
Tracksize = 151.
load barrier size = 0.
store barrier size = 0.
Tracksize = 152.
load barrier size = 0.
store barrier size = 0.
Tracksize = 153.
load barrier size = 0.
store barrier size = 0.
Tracksize = 154.
load barrier size = 0.
store barrier size = 0.
Tracksize = 155.
load barrier size = 0.
store barrier size = 0.
Tracksize = 154.
load barrier size = 0.
store barrier size = 0.
Tracksize = 155.
load barrier size = 0.
store barrier size = 0.
Tracksize = 156.
load barrier size = 0.
store barrier size = 0.
Tracksize = 154.
load barrier size = 0.
store barrier size = 0.
Tracksize = 154.
load barrier size = 0.
store barrier size = 0.
Tracksize = 155.
load barrier size = 0.
store barrier size = 0.
Tracksize = 154.
load barrier size = 0.
store barrier size = 0.
Tracksize = 154.
load barrier size = 0.
store barrier size = 0.
Tracksize = 154.
load barrier size = 0.
store barrier size = 0.
Tracksize = 155.
load barrier size = 0.
store barrier size = 0.
Tracksize = 156.
load barrier size = 0.
store barrier size = 0.
Tracksize = 157.
load barrier size = 0.
store barrier size = 0.
Tracksize = 158.
load barrier size = 0.
store barrier size = 0.
Tracksize = 158.
load barrier size = 0.
store barrier size = 0.
Tracksize = 159.
load barrier size = 0.
store barrier size = 0.
Tracksize = 160.
load barrier size = 0.
store barrier size = 0.
Tracksize = 159.
load barrier size = 0.
store barrier size = 0.
Tracksize = 159.
load barrier size = 0.
store barrier size = 0.
Tracksize = 159.
load barrier size = 0.
store barrier size = 0.
Tracksize = 160.
load barrier size = 0.
store barrier size = 0.
Tracksize = 161.
load barrier size = 0.
store barrier size = 0.
Tracksize = 159.
load barrier size = 0.
store barrier size = 0.
Tracksize = 160.
load barrier size = 0.
store barrier size = 0.
Tracksize = 159.
load barrier size = 0.
store barrier size = 0.
Tracksize = 160.
load barrier size = 0.
store barrier size = 0.
Tracksize = 159.
load barrier size = 0.
store barrier size = 0.
Tracksize = 159.
load barrier size = 0.
store barrier size = 0.
Tracksize = 160.
load barrier size = 0.
store barrier size = 0.
Tracksize = 161.
load barrier size = 0.
store barrier size = 0.
Tracksize = 159.
load barrier size = 0.
store barrier size = 0.
Tracksize = 159.
load barrier size = 0.
store barrier size = 0.
Tracksize = 160.
load barrier size = 0.
store barrier size = 0.
Tracksize = 159.
load barrier size = 0.
store barrier size = 0.
Tracksize = 160.
load barrier size = 0.
store barrier size = 0.
Tracksize = 159.
load barrier size = 0.
store barrier size = 0.
Tracksize = 160.
load barrier size = 0.
store barrier size = 0.
Tracksize = 159.
load barrier size = 0.
store barrier size = 0.
Tracksize = 159.
load barrier size = 0.
store barrier size = 0.
Tracksize = 160.
load barrier size = 0.
store barrier size = 0.
Tracksize = 161.
load barrier size = 0.
store barrier size = 0.
Tracksize = 162.
load barrier size = 0.
store barrier size = 0.
Tracksize = 163.
load barrier size = 0.
store barrier size = 0.
Tracksize = 161.
load barrier size = 0.
store barrier size = 0.
Tracksize = 159.
load barrier size = 0.
store barrier size = 0.
Tracksize = 159.
load barrier size = 0.
store barrier size = 0.
Tracksize = 160.
load barrier size = 0.
store barrier size = 0.
Tracksize = 159.
load barrier size = 0.
store barrier size = 0.
Tracksize = 160.
load barrier size = 0.
store barrier size = 0.
Tracksize = 159.
load barrier size = 0.
store barrier size = 0.
Tracksize = 159.
load barrier size = 0.
store barrier size = 0.
Tracksize = 160.
load barrier size = 0.
store barrier size = 0.
Tracksize = 161.
load barrier size = 0.
store barrier size = 0.
Tracksize = 162.
load barrier size = 0.
store barrier size = 0.
Tracksize = 161.
load barrier size = 0.
store barrier size = 0.
Tracksize = 160.
load barrier size = 0.
store barrier size = 0.
Tracksize = 161.
load barrier size = 0.
store barrier size = 0.
Tracksize = 160.
load barrier size = 0.
store barrier size = 0.
Tracksize = 161.
load barrier size = 0.
store barrier size = 0.
Tracksize = 160.
load barrier size = 0.
store barrier size = 0.
Tracksize = 160.
load barrier size = 0.
store barrier size = 0.
Tracksize = 161.
load barrier size = 0.
store barrier size = 0.
Tracksize = 162.
load barrier size = 0.
store barrier size = 0.
Tracksize = 160.
load barrier size = 0.
store barrier size = 0.
Tracksize = 161.
load barrier size = 0.
store barrier size = 0.
Tracksize = 160.
load barrier size = 0.
store barrier size = 0.
Tracksize = 161.
load barrier size = 0.
store barrier size = 0.
Tracksize = 161.
load barrier size = 0.
store barrier size = 0.
Tracksize = 162.
load barrier size = 0.
store barrier size = 0.
Tracksize = 160.
load barrier size = 0.
store barrier size = 0.
Tracksize = 160.
load barrier size = 0.
store barrier size = 0.
Tracksize = 161.
load barrier size = 0.
store barrier size = 0.
Tracksize = 162.
load barrier size = 0.
store barrier size = 0.
Tracksize = 163.
load barrier size = 0.
store barrier size = 0.
Tracksize = 164.
load barrier size = 0.
store barrier size = 0.
Tracksize = 165.
load barrier size = 0.
store barrier size = 0.
Tracksize = 164.
load barrier size = 0.
store barrier size = 0.
Tracksize = 163.
load barrier size = 0.
store barrier size = 0.
Tracksize = 164.
load barrier size = 0.
store barrier size = 0.
Tracksize = 163.
load barrier size = 0.
store barrier size = 0.
Tracksize = 164.
load barrier size = 0.
store barrier size = 0.
Tracksize = 165.
load barrier size = 0.
store barrier size = 0.
Tracksize = 166.
load barrier size = 0.
store barrier size = 0.
Tracksize = 167.
load barrier size = 0.
store barrier size = 0.
Tracksize = 168.
load barrier size = 0.
store barrier size = 0.
Tracksize = 169.
load barrier size = 0.
store barrier size = 0.
Tracksize = 170.
load barrier size = 0.
store barrier size = 0.
Tracksize = 171.
load barrier size = 0.
store barrier size = 0.
Tracksize = 172.
load barrier size = 0.
store barrier size = 0.
Tracksize = 171.
load barrier size = 0.
store barrier size = 0.
Tracksize = 169.
load barrier size = 0.
store barrier size = 0.
Tracksize = 169.
load barrier size = 0.
store barrier size = 0.
Tracksize = 170.
load barrier size = 0.
store barrier size = 0.
Tracksize = 171.
load barrier size = 0.
store barrier size = 0.
Tracksize = 169.
load barrier size = 0.
store barrier size = 0.
Tracksize = 170.
load barrier size = 0.
store barrier size = 0.
Tracksize = 169.
load barrier size = 0.
store barrier size = 0.
Tracksize = 170.
load barrier size = 0.
store barrier size = 0.
Tracksize = 169.
load barrier size = 0.
store barrier size = 0.
Tracksize = 169.
load barrier size = 0.
store barrier size = 0.
Tracksize = 170.
load barrier size = 0.
store barrier size = 0.
Tracksize = 170.
load barrier size = 0.
store barrier size = 0.
Tracksize = 170.
load barrier size = 0.
store barrier size = 0.
Tracksize = 171.
load barrier size = 0.
store barrier size = 0.
Tracksize = 172.
load barrier size = 0.
store barrier size = 0.
Tracksize = 173.
load barrier size = 0.
store barrier size = 0.
Tracksize = 172.
load barrier size = 0.
store barrier size = 0.
Tracksize = 173.
load barrier size = 0.
store barrier size = 0.
Tracksize = 174.
load barrier size = 0.
store barrier size = 0.
Tracksize = 175.
load barrier size = 0.
store barrier size = 0.
Tracksize = 174.
load barrier size = 0.
store barrier size = 0.
Tracksize = 173.
load barrier size = 0.
store barrier size = 0.
Tracksize = 174.
load barrier size = 0.
store barrier size = 0.
Tracksize = 173.
load barrier size = 0.
store barrier size = 0.
Tracksize = 174.
load barrier size = 0.
store barrier size = 0.
Tracksize = 175.
load barrier size = 0.
store barrier size = 0.
Tracksize = 176.
load barrier size = 0.
store barrier size = 0.
Tracksize = 177.
load barrier size = 0.
store barrier size = 0.
Tracksize = 176.
load barrier size = 0.
store barrier size = 0.
Tracksize = 175.
load barrier size = 0.
store barrier size = 0.
Tracksize = 176.
load barrier size = 0.
store barrier size = 0.
Tracksize = 175.
load barrier size = 0.
store barrier size = 0.
Tracksize = 176.
load barrier size = 0.
store barrier size = 0.
Tracksize = 175.
load barrier size = 0.
store barrier size = 0.
Tracksize = 175.
load barrier size = 0.
store barrier size = 0.
Tracksize = 176.
load barrier size = 0.
store barrier size = 0.
Tracksize = 175.
load barrier size = 0.
store barrier size = 0.
Tracksize = 176.
load barrier size = 0.
store barrier size = 0.
Tracksize = 177.
load barrier size = 0.
store barrier size = 0.
Tracksize = 177.
load barrier size = 0.
store barrier size = 0.
Tracksize = 178.
load barrier size = 0.
store barrier size = 0.
Tracksize = 177.
load barrier size = 0.
store barrier size = 0.
Tracksize = 178.
load barrier size = 0.
store barrier size = 0.
Tracksize = 177.
load barrier size = 0.
store barrier size = 0.
Tracksize = 177.
load barrier size = 0.
store barrier size = 0.
Tracksize = 178.
load barrier size = 0.
store barrier size = 0.
Tracksize = 177.
load barrier size = 0.
store barrier size = 0.
Tracksize = 178.
load barrier size = 0.
store barrier size = 0.
Tracksize = 179.
load barrier size = 0.
store barrier size = 0.
Tracksize = 180.
load barrier size = 0.
store barrier size = 0.
Tracksize = 179.
load barrier size = 0.
store barrier size = 0.
Tracksize = 180.
load barrier size = 0.
store barrier size = 0.
Tracksize = 181.
load barrier size = 0.
store barrier size = 0.
Tracksize = 182.
load barrier size = 0.
store barrier size = 0.
Tracksize = 181.
load barrier size = 0.
store barrier size = 0.
Tracksize = 180.
load barrier size = 0.
store barrier size = 0.
Tracksize = 181.
load barrier size = 0.
store barrier size = 0.
Tracksize = 180.
load barrier size = 0.
store barrier size = 0.
Tracksize = 181.
load barrier size = 0.
store barrier size = 0.
Tracksize = 180.
load barrier size = 0.
store barrier size = 0.
Tracksize = 181.
load barrier size = 0.
store barrier size = 0.
Tracksize = 182.
load barrier size = 0.
store barrier size = 0.
Tracksize = 183.
load barrier size = 0.
store barrier size = 0.
Tracksize = 184.
load barrier size = 0.
store barrier size = 0.
Tracksize = 185.
load barrier size = 0.
store barrier size = 0.
Tracksize = 186.
load barrier size = 0.
store barrier size = 0.
Tracksize = 187.
load barrier size = 0.
store barrier size = 0.
Tracksize = 186.
load barrier size = 0.
store barrier size = 0.
Tracksize = 187.
load barrier size = 0.
store barrier size = 0.
Tracksize = 188.
load barrier size = 0.
store barrier size = 0.
Tracksize = 189.
load barrier size = 0.
store barrier size = 0.
Tracksize = 190.
load barrier size = 0.
store barrier size = 0.
Tracksize = 191.
load barrier size = 0.
store barrier size = 0.
Tracksize = 191.
load barrier size = 0.
store barrier size = 0.
Tracksize = 192.
load barrier size = 0.
store barrier size = 0.
Tracksize = 193.
load barrier size = 0.
store barrier size = 0.
Tracksize = 194.
load barrier size = 0.
store barrier size = 0.
Tracksize = 195.
load barrier size = 0.
store barrier size = 0.
Tracksize = 196.
load barrier size = 0.
store barrier size = 0.
Tracksize = 197.
load barrier size = 0.
store barrier size = 0.
Tracksize = 198.
load barrier size = 0.
store barrier size = 0.
Tracksize = 197.
load barrier size = 0.
store barrier size = 0.
Tracksize = 196.
load barrier size = 0.
store barrier size = 0.
Tracksize = 197.
load barrier size = 0.
store barrier size = 0.
Tracksize = 196.
load barrier size = 0.
store barrier size = 0.
Tracksize = 197.
load barrier size = 0.
store barrier size = 0.
Tracksize = 198.
load barrier size = 0.
store barrier size = 0.
Tracksize = 197.
load barrier size = 0.
store barrier size = 0.
Tracksize = 197.
load barrier size = 0.
store barrier size = 0.
Tracksize = 198.
load barrier size = 0.
store barrier size = 0.
Tracksize = 197.
load barrier size = 0.
store barrier size = 0.
Tracksize = 198.
load barrier size = 0.
store barrier size = 0.
Tracksize = 197.
load barrier size = 0.
store barrier size = 0.
Tracksize = 197.
load barrier size = 0.
store barrier size = 0.
Tracksize = 197.
load barrier size = 0.
store barrier size = 0.
Tracksize = 197.
load barrier size = 0.
store barrier size = 0.
Tracksize = 198.
load barrier size = 0.
store barrier size = 0.
Tracksize = 197.
load barrier size = 0.
store barrier size = 0.
Tracksize = 198.
load barrier size = 0.
store barrier size = 0.
Tracksize = 197.
load barrier size = 0.
store barrier size = 0.
Tracksize = 197.
load barrier size = 0.
store barrier size = 0.
Tracksize = 198.
load barrier size = 0.
store barrier size = 0.
Tracksize = 197.
load barrier size = 0.
store barrier size = 0.
Tracksize = 198.
load barrier size = 0.
store barrier size = 0.
Tracksize = 197.
load barrier size = 0.
store barrier size = 0.
Tracksize = 197.
load barrier size = 0.
store barrier size = 0.
Tracksize = 197.
load barrier size = 0.
store barrier size = 0.
Tracksize = 198.
load barrier size = 0.
store barrier size = 0.
Tracksize = 199.
load barrier size = 0.
store barrier size = 0.
Tracksize = 200.
load barrier size = 0.
store barrier size = 0.
Tracksize = 197.
load barrier size = 0.
store barrier size = 0.
Tracksize = 198.
load barrier size = 0.
store barrier size = 0.
Tracksize = 199.
load barrier size = 0.
store barrier size = 0.
Tracksize = 198.
load barrier size = 0.
store barrier size = 0.
Tracksize = 198.
load barrier size = 0.
store barrier size = 0.
Tracksize = 199.
load barrier size = 0.
store barrier size = 0.
Tracksize = 200.
load barrier size = 0.
store barrier size = 0.
Tracksize = 198.
load barrier size = 0.
store barrier size = 0.
Tracksize = 199.
load barrier size = 0.
store barrier size = 0.
Tracksize = 198.
load barrier size = 0.
store barrier size = 0.
Tracksize = 199.
load barrier size = 0.
store barrier size = 0.
Tracksize = 198.
load barrier size = 0.
store barrier size = 0.
Tracksize = 198.
load barrier size = 0.
store barrier size = 0.
Tracksize = 198.
load barrier size = 0.
store barrier size = 0.
Tracksize = 199.
load barrier size = 0.
store barrier size = 0.
Tracksize = 200.
load barrier size = 0.
store barrier size = 0.
Tracksize = 201.
load barrier size = 0.
store barrier size = 0.
Tracksize = 198.
load barrier size = 0.
store barrier size = 0.
Tracksize = 199.
load barrier size = 0.
store barrier size = 0.
Tracksize = 200.
load barrier size = 0.
store barrier size = 0.
Tracksize = 199.
load barrier size = 0.
store barrier size = 0.
Tracksize = 199.
load barrier size = 0.
store barrier size = 0.
Tracksize = 200.
load barrier size = 0.
store barrier size = 0.
Tracksize = 199.
load barrier size = 0.
store barrier size = 0.
Tracksize = 200.
load barrier size = 0.
store barrier size = 0.
Tracksize = 199.
load barrier size = 0.
store barrier size = 0.
Tracksize = 199.
load barrier size = 0.
store barrier size = 0.
Tracksize = 199.
load barrier size = 0.
store barrier size = 0.
Tracksize = 200.
load barrier size = 0.
store barrier size = 0.
Tracksize = 201.
load barrier size = 0.
store barrier size = 0.
Tracksize = 202.
load barrier size = 0.
store barrier size = 0.
Tracksize = 203.
load barrier size = 0.
store barrier size = 0.
Tracksize = 204.
load barrier size = 0.
store barrier size = 0.
Tracksize = 201.
load barrier size = 0.
store barrier size = 0.
Tracksize = 202.
load barrier size = 0.
store barrier size = 0.
Tracksize = 201.
load barrier size = 0.
store barrier size = 0.
Tracksize = 202.
load barrier size = 0.
store barrier size = 0.
Tracksize = 201.
load barrier size = 0.
store barrier size = 0.
Tracksize = 201.
load barrier size = 0.
store barrier size = 0.
Tracksize = 201.
load barrier size = 0.
store barrier size = 0.
Tracksize = 201.
load barrier size = 0.
store barrier size = 0.
Tracksize = 202.
load barrier size = 0.
store barrier size = 0.
Tracksize = 203.
load barrier size = 0.
store barrier size = 0.
Tracksize = 204.
load barrier size = 0.
store barrier size = 0.
Tracksize = 201.
load barrier size = 0.
store barrier size = 0.
Tracksize = 202.
load barrier size = 0.
store barrier size = 0.
Tracksize = 203.
load barrier size = 0.
store barrier size = 0.
Tracksize = 202.
load barrier size = 0.
store barrier size = 0.
Tracksize = 202.
load barrier size = 0.
store barrier size = 0.
Tracksize = 202.
load barrier size = 0.
store barrier size = 0.
Tracksize = 203.
load barrier size = 0.
store barrier size = 0.
Tracksize = 202.
load barrier size = 0.
store barrier size = 0.
Tracksize = 202.
load barrier size = 0.
store barrier size = 0.
Tracksize = 203.
load barrier size = 0.
store barrier size = 0.
Tracksize = 204.
load barrier size = 0.
store barrier size = 0.
Tracksize = 205.
load barrier size = 0.
store barrier size = 0.
Tracksize = 206.
load barrier size = 0.
store barrier size = 0.
Tracksize = 207.
load barrier size = 0.
store barrier size = 0.
Tracksize = 206.
load barrier size = 0.
store barrier size = 0.
Tracksize = 207.
load barrier size = 0.
store barrier size = 0.
Tracksize = 206.
load barrier size = 0.
store barrier size = 0.
Tracksize = 207.
load barrier size = 0.
store barrier size = 0.
Tracksize = 206.
load barrier size = 0.
store barrier size = 0.
Tracksize = 207.
load barrier size = 0.
store barrier size = 0.
Tracksize = 206.
load barrier size = 0.
store barrier size = 0.
Tracksize = 207.
load barrier size = 0.
store barrier size = 0.
Tracksize = 206.
load barrier size = 0.
store barrier size = 0.
Tracksize = 207.
load barrier size = 0.
store barrier size = 0.
Tracksize = 206.
load barrier size = 0.
store barrier size = 0.
Tracksize = 207.
load barrier size = 0.
store barrier size = 0.
Tracksize = 206.
load barrier size = 0.
store barrier size = 0.
Tracksize = 207.
load barrier size = 0.
store barrier size = 0.
Tracksize = 206.
load barrier size = 0.
store barrier size = 0.
Tracksize = 207.
load barrier size = 0.
store barrier size = 0.
Tracksize = 208.
load barrier size = 0.
store barrier size = 0.
Tracksize = 208.
load barrier size = 0.
store barrier size = 0.
Tracksize = 209.
load barrier size = 0.
store barrier size = 0.
Tracksize = 208.
load barrier size = 0.
store barrier size = 0.
Tracksize = 209.
load barrier size = 0.
store barrier size = 0.
Tracksize = 209.
load barrier size = 0.
store barrier size = 0.
Tracksize = 209.
load barrier size = 0.
store barrier size = 0.
Tracksize = 210.
load barrier size = 0.
store barrier size = 0.
Tracksize = 209.
load barrier size = 0.
store barrier size = 0.
Tracksize = 210.
load barrier size = 0.
store barrier size = 0.
Tracksize = 209.
load barrier size = 0.
store barrier size = 0.
Tracksize = 209.
load barrier size = 0.
store barrier size = 0.
Tracksize = 209.
load barrier size = 0.
store barrier size = 0.
Tracksize = 210.
load barrier size = 0.
store barrier size = 0.
Tracksize = 209.
load barrier size = 0.
store barrier size = 0.
Tracksize = 209.
load barrier size = 0.
store barrier size = 0.
Tracksize = 210.
load barrier size = 0.
store barrier size = 0.
Tracksize = 209.
load barrier size = 0.
store barrier size = 0.
Tracksize = 210.
load barrier size = 0.
store barrier size = 0.
Tracksize = 211.
load barrier size = 0.
store barrier size = 0.
Tracksize = 211.
load barrier size = 0.
store barrier size = 0.
Tracksize = 212.
load barrier size = 0.
store barrier size = 0.
Tracksize = 211.
load barrier size = 0.
store barrier size = 0.
Tracksize = 211.
load barrier size = 0.
store barrier size = 0.
Tracksize = 211.
load barrier size = 0.
store barrier size = 0.
Tracksize = 211.
load barrier size = 0.
store barrier size = 0.
Tracksize = 212.
load barrier size = 0.
store barrier size = 0.
Tracksize = 213.
load barrier size = 0.
store barrier size = 0.
Tracksize = 214.
load barrier size = 0.
store barrier size = 0.
Tracksize = 215.
load barrier size = 0.
store barrier size = 0.
Tracksize = 216.
load barrier size = 0.
store barrier size = 0.
Tracksize = 217.
load barrier size = 0.
store barrier size = 0.
Tracksize = 218.
load barrier size = 0.
store barrier size = 0.
Tracksize = 217.
load barrier size = 0.
store barrier size = 0.
Tracksize = 216.
load barrier size = 0.
store barrier size = 0.
Tracksize = 217.
load barrier size = 0.
store barrier size = 0.
Tracksize = 216.
load barrier size = 0.
store barrier size = 0.
Tracksize = 216.
load barrier size = 0.
store barrier size = 0.
Tracksize = 217.
load barrier size = 0.
store barrier size = 0.
Tracksize = 216.
load barrier size = 0.
store barrier size = 0.
Tracksize = 217.
load barrier size = 0.
store barrier size = 0.
Tracksize = 218.
load barrier size = 0.
store barrier size = 0.
Tracksize = 218.
load barrier size = 0.
store barrier size = 0.
Tracksize = 219.
load barrier size = 0.
store barrier size = 0.
Tracksize = 218.
load barrier size = 0.
store barrier size = 0.
Tracksize = 219.
load barrier size = 0.
store barrier size = 0.
Tracksize = 218.
load barrier size = 0.
store barrier size = 0.
Tracksize = 218.
load barrier size = 0.
store barrier size = 0.
Tracksize = 218.
load barrier size = 0.
store barrier size = 0.
Tracksize = 218.
load barrier size = 0.
store barrier size = 0.
Tracksize = 219.
load barrier size = 0.
store barrier size = 0.
Tracksize = 220.
load barrier size = 0.
store barrier size = 0.
Tracksize = 221.
load barrier size = 0.
store barrier size = 0.
Tracksize = 220.
load barrier size = 0.
store barrier size = 0.
Tracksize = 218.
load barrier size = 0.
store barrier size = 0.
Tracksize = 218.
load barrier size = 0.
store barrier size = 0.
Tracksize = 219.
load barrier size = 0.
store barrier size = 0.
Tracksize = 218.
load barrier size = 0.
store barrier size = 0.
Tracksize = 219.
load barrier size = 0.
store barrier size = 0.
Tracksize = 220.
load barrier size = 0.
store barrier size = 0.
Tracksize = 220.
load barrier size = 0.
store barrier size = 0.
Tracksize = 221.
load barrier size = 0.
store barrier size = 0.
Tracksize = 220.
load barrier size = 0.
store barrier size = 0.
Tracksize = 221.
load barrier size = 0.
store barrier size = 0.
Tracksize = 220.
load barrier size = 0.
store barrier size = 0.
Tracksize = 220.
load barrier size = 0.
store barrier size = 0.
Tracksize = 221.
load barrier size = 0.
store barrier size = 0.
Tracksize = 222.
load barrier size = 0.
store barrier size = 0.
Tracksize = 223.
load barrier size = 0.
store barrier size = 0.
Tracksize = 224.
load barrier size = 0.
store barrier size = 0.
Tracksize = 225.
load barrier size = 0.
store barrier size = 0.
Tracksize = 226.
load barrier size = 0.
store barrier size = 0.
Tracksize = 227.
load barrier size = 0.
store barrier size = 0.
Tracksize = 226.
load barrier size = 0.
store barrier size = 0.
Tracksize = 224.
load barrier size = 0.
store barrier size = 0.
Tracksize = 224.
load barrier size = 0.
store barrier size = 0.
Tracksize = 225.
load barrier size = 0.
store barrier size = 0.
Tracksize = 224.
load barrier size = 0.
store barrier size = 0.
Tracksize = 225.
load barrier size = 0.
store barrier size = 0.
Tracksize = 226.
load barrier size = 0.
store barrier size = 0.
Tracksize = 226.
load barrier size = 0.
store barrier size = 0.
Tracksize = 227.
load barrier size = 0.
store barrier size = 0.
Tracksize = 226.
load barrier size = 0.
store barrier size = 0.
Tracksize = 226.
load barrier size = 0.
store barrier size = 0.
Tracksize = 226.
load barrier size = 0.
store barrier size = 0.
Tracksize = 226.
load barrier size = 0.
store barrier size = 0.
Tracksize = 227.
load barrier size = 0.
store barrier size = 0.
Tracksize = 228.
load barrier size = 0.
store barrier size = 0.
Tracksize = 227.
load barrier size = 0.
store barrier size = 0.
Tracksize = 228.
load barrier size = 0.
store barrier size = 0.
Tracksize = 227.
load barrier size = 0.
store barrier size = 0.
Tracksize = 228.
load barrier size = 0.
store barrier size = 0.
Tracksize = 227.
load barrier size = 0.
store barrier size = 0.
Tracksize = 227.
load barrier size = 0.
store barrier size = 0.
Tracksize = 227.
load barrier size = 0.
store barrier size = 0.
Tracksize = 227.
load barrier size = 0.
store barrier size = 0.
Tracksize = 228.
load barrier size = 0.
store barrier size = 0.
Tracksize = 227.
load barrier size = 0.
store barrier size = 0.
Tracksize = 227.
load barrier size = 0.
store barrier size = 0.
Tracksize = 228.
load barrier size = 0.
store barrier size = 0.
Tracksize = 229.
load barrier size = 0.
store barrier size = 0.
Tracksize = 230.
load barrier size = 0.
store barrier size = 0.
Tracksize = 229.
load barrier size = 0.
store barrier size = 0.
Tracksize = 230.
load barrier size = 0.
store barrier size = 0.
Tracksize = 231.
load barrier size = 0.
store barrier size = 0.
Tracksize = 232.
load barrier size = 0.
store barrier size = 0.
Tracksize = 231.
load barrier size = 0.
store barrier size = 0.
Tracksize = 230.
load barrier size = 0.
store barrier size = 0.
Tracksize = 231.
load barrier size = 0.
store barrier size = 0.
Tracksize = 230.
load barrier size = 0.
store barrier size = 0.
Tracksize = 231.
load barrier size = 0.
store barrier size = 0.
Tracksize = 230.
load barrier size = 0.
store barrier size = 0.
Tracksize = 231.
load barrier size = 0.
store barrier size = 0.
Tracksize = 232.
load barrier size = 0.
store barrier size = 0.
Tracksize = 233.
load barrier size = 0.
store barrier size = 0.
Tracksize = 234.
load barrier size = 0.
store barrier size = 0.
Tracksize = 235.
load barrier size = 0.
store barrier size = 0.
Tracksize = 234.
load barrier size = 0.
store barrier size = 0.
Tracksize = 233.
load barrier size = 0.
store barrier size = 0.
Tracksize = 234.
load barrier size = 0.
store barrier size = 0.
Tracksize = 233.
load barrier size = 0.
store barrier size = 0.
Tracksize = 233.
load barrier size = 0.
store barrier size = 0.
Tracksize = 234.
load barrier size = 0.
store barrier size = 0.
Tracksize = 233.
load barrier size = 0.
store barrier size = 0.
Tracksize = 234.
load barrier size = 0.
store barrier size = 0.
Tracksize = 233.
load barrier size = 0.
store barrier size = 0.
Tracksize = 233.
load barrier size = 0.
store barrier size = 0.
Tracksize = 233.
load barrier size = 0.
store barrier size = 0.
Tracksize = 234.
load barrier size = 0.
store barrier size = 0.
Tracksize = 233.
load barrier size = 0.
store barrier size = 0.
Tracksize = 234.
load barrier size = 0.
store barrier size = 0.
Tracksize = 235.
load barrier size = 0.
store barrier size = 0.
Tracksize = 234.
load barrier size = 0.
store barrier size = 0.
Tracksize = 234.
load barrier size = 0.
store barrier size = 0.
Tracksize = 235.
load barrier size = 0.
store barrier size = 0.
Tracksize = 234.
load barrier size = 0.
store barrier size = 0.
Tracksize = 235.
load barrier size = 0.
store barrier size = 0.
Tracksize = 234.
load barrier size = 0.
store barrier size = 0.
Tracksize = 234.
load barrier size = 0.
store barrier size = 0.
Tracksize = 235.
load barrier size = 0.
store barrier size = 0.
Tracksize = 234.
load barrier size = 0.
store barrier size = 0.
Tracksize = 235.
load barrier size = 0.
store barrier size = 0.
Tracksize = 236.
load barrier size = 0.
store barrier size = 0.
Tracksize = 235.
load barrier size = 0.
store barrier size = 0.
Tracksize = 236.
load barrier size = 0.
store barrier size = 0.
Tracksize = 235.
load barrier size = 0.
store barrier size = 0.
Tracksize = 236.
load barrier size = 0.
store barrier size = 0.
Tracksize = 235.
load barrier size = 0.
store barrier size = 0.
Tracksize = 235.
load barrier size = 0.
store barrier size = 0.
Tracksize = 236.
load barrier size = 0.
store barrier size = 0.
Tracksize = 237.
load barrier size = 0.
store barrier size = 0.
Tracksize = 235.
load barrier size = 0.
store barrier size = 0.
Tracksize = 236.
load barrier size = 0.
store barrier size = 0.
Tracksize = 235.
load barrier size = 0.
store barrier size = 0.
Tracksize = 235.
load barrier size = 0.
store barrier size = 0.
Tracksize = 236.
load barrier size = 0.
store barrier size = 0.
Tracksize = 235.
load barrier size = 0.
store barrier size = 0.
Tracksize = 235.
load barrier size = 0.
store barrier size = 0.
Tracksize = 235.
load barrier size = 0.
store barrier size = 0.
Tracksize = 236.
load barrier size = 0.
store barrier size = 0.
Tracksize = 235.
load barrier size = 0.
store barrier size = 0.
Tracksize = 236.
load barrier size = 0.
store barrier size = 0.
Tracksize = 237.
load barrier size = 0.
store barrier size = 0.
Tracksize = 237.
load barrier size = 0.
store barrier size = 0.
Tracksize = 238.
load barrier size = 0.
store barrier size = 0.
Tracksize = 237.
load barrier size = 0.
store barrier size = 0.
Tracksize = 237.
load barrier size = 0.
store barrier size = 0.
Tracksize = 237.
load barrier size = 0.
store barrier size = 0.
Tracksize = 237.
load barrier size = 0.
store barrier size = 0.
Tracksize = 238.
load barrier size = 0.
store barrier size = 0.
Tracksize = 239.
load barrier size = 0.
store barrier size = 0.
Tracksize = 240.
load barrier size = 0.
store barrier size = 0.
Tracksize = 241.
load barrier size = 0.
store barrier size = 0.
Tracksize = 242.
load barrier size = 0.
store barrier size = 0.
Tracksize = 239.
load barrier size = 0.
store barrier size = 0.
Tracksize = 240.
load barrier size = 0.
store barrier size = 0.
Tracksize = 241.
load barrier size = 0.
store barrier size = 0.
Tracksize = 240.
load barrier size = 0.
store barrier size = 0.
Tracksize = 240.
load barrier size = 0.
store barrier size = 0.
Tracksize = 241.
load barrier size = 0.
store barrier size = 0.
Tracksize = 240.
load barrier size = 0.
store barrier size = 0.
Tracksize = 241.
load barrier size = 0.
store barrier size = 0.
Tracksize = 240.
load barrier size = 0.
store barrier size = 0.
Tracksize = 240.
load barrier size = 0.
store barrier size = 0.
Tracksize = 240.
load barrier size = 0.
store barrier size = 0.
Tracksize = 241.
load barrier size = 0.
store barrier size = 0.
Tracksize = 240.
load barrier size = 0.
store barrier size = 0.
Tracksize = 240.
load barrier size = 0.
store barrier size = 0.
Tracksize = 240.
load barrier size = 0.
store barrier size = 0.
Tracksize = 241.
load barrier size = 0.
store barrier size = 0.
Tracksize = 242.
load barrier size = 0.
store barrier size = 0.
Tracksize = 243.
load barrier size = 0.
store barrier size = 0.
Tracksize = 242.
load barrier size = 0.
store barrier size = 0.
Tracksize = 243.
load barrier size = 0.
store barrier size = 0.
Tracksize = 244.
load barrier size = 0.
store barrier size = 0.
Tracksize = 245.
load barrier size = 0.
store barrier size = 0.
Tracksize = 244.
load barrier size = 0.
store barrier size = 0.
Tracksize = 243.
load barrier size = 0.
store barrier size = 0.
Tracksize = 244.
load barrier size = 0.
store barrier size = 0.
Tracksize = 243.
load barrier size = 0.
store barrier size = 0.
Tracksize = 244.
load barrier size = 0.
store barrier size = 0.
Tracksize = 245.
load barrier size = 0.
store barrier size = 0.
Tracksize = 246.
load barrier size = 0.
store barrier size = 0.
Tracksize = 247.
load barrier size = 0.
store barrier size = 0.
Tracksize = 248.
load barrier size = 0.
store barrier size = 0.
Tracksize = 247.
load barrier size = 0.
store barrier size = 0.
Tracksize = 246.
load barrier size = 0.
store barrier size = 0.
Tracksize = 247.
load barrier size = 0.
store barrier size = 0.
Tracksize = 246.
load barrier size = 0.
store barrier size = 0.
Tracksize = 247.
load barrier size = 0.
store barrier size = 0.
Tracksize = 246.
load barrier size = 0.
store barrier size = 0.
Tracksize = 246.
load barrier size = 0.
store barrier size = 0.
Tracksize = 247.
load barrier size = 0.
store barrier size = 0.
Tracksize = 246.
load barrier size = 0.
store barrier size = 0.
Tracksize = 247.
load barrier size = 0.
store barrier size = 0.
Tracksize = 246.
load barrier size = 0.
store barrier size = 0.
Tracksize = 246.
load barrier size = 0.
store barrier size = 0.
Tracksize = 246.
load barrier size = 0.
store barrier size = 0.
Tracksize = 247.
load barrier size = 0.
store barrier size = 0.
Tracksize = 248.
load barrier size = 0.
store barrier size = 0.
Tracksize = 249.
load barrier size = 0.
store barrier size = 0.
Tracksize = 248.
load barrier size = 0.
store barrier size = 0.
Tracksize = 247.
load barrier size = 0.
store barrier size = 0.
Tracksize = 248.
load barrier size = 0.
store barrier size = 0.
Tracksize = 247.
load barrier size = 0.
store barrier size = 0.
Tracksize = 247.
load barrier size = 0.
store barrier size = 0.
Tracksize = 248.
load barrier size = 0.
store barrier size = 0.
Tracksize = 249.
load barrier size = 0.
store barrier size = 0.
Tracksize = 247.
load barrier size = 0.
store barrier size = 0.
Tracksize = 248.
load barrier size = 0.
store barrier size = 0.
Tracksize = 247.
load barrier size = 0.
store barrier size = 0.
Tracksize = 247.
load barrier size = 0.
store barrier size = 0.
Tracksize = 248.
load barrier size = 0.
store barrier size = 0.
Tracksize = 247.
load barrier size = 0.
store barrier size = 0.
Tracksize = 248.
load barrier size = 0.
store barrier size = 0.
Tracksize = 249.
load barrier size = 0.
store barrier size = 0.
Tracksize = 250.
load barrier size = 0.
store barrier size = 0.
Tracksize = 249.
load barrier size = 0.
store barrier size = 0.
Tracksize = 247.
load barrier size = 0.
store barrier size = 0.
Tracksize = 247.
load barrier size = 0.
store barrier size = 0.
Tracksize = 248.
load barrier size = 0.
store barrier size = 0.
Tracksize = 247.
load barrier size = 0.
store barrier size = 0.
Tracksize = 248.
load barrier size = 0.
store barrier size = 0.
Tracksize = 247.
load barrier size = 0.
store barrier size = 0.
Tracksize = 247.
load barrier size = 0.
store barrier size = 0.
Tracksize = 247.
load barrier size = 0.
store barrier size = 0.
Tracksize = 247.
load barrier size = 0.
store barrier size = 0.
Tracksize = 248.
load barrier size = 0.
store barrier size = 0.
Tracksize = 249.
load barrier size = 0.
store barrier size = 0.
Tracksize = 250.
load barrier size = 0.
store barrier size = 0.
Tracksize = 249.
load barrier size = 0.
store barrier size = 0.
Tracksize = 250.
load barrier size = 0.
store barrier size = 0.
Tracksize = 249.
load barrier size = 0.
store barrier size = 0.
Tracksize = 250.
load barrier size = 0.
store barrier size = 0.
Tracksize = 251.
load barrier size = 0.
store barrier size = 0.
Tracksize = 250.
load barrier size = 0.
store barrier size = 0.
Tracksize = 251.
load barrier size = 0.
store barrier size = 0.
Tracksize = 250.
load barrier size = 0.
store barrier size = 0.
Tracksize = 251.
load barrier size = 0.
store barrier size = 0.
Tracksize = 252.
load barrier size = 0.
store barrier size = 0.
Tracksize = 253.
load barrier size = 0.
store barrier size = 0.
Tracksize = 252.
load barrier size = 0.
store barrier size = 0.
Tracksize = 253.
load barrier size = 0.
store barrier size = 0.
Tracksize = 252.
load barrier size = 0.
store barrier size = 0.
Tracksize = 252.
load barrier size = 0.
store barrier size = 0.
Tracksize = 253.
load barrier size = 0.
store barrier size = 0.
Tracksize = 252.
load barrier size = 0.
store barrier size = 0.
Tracksize = 253.
load barrier size = 0.
store barrier size = 0.
Tracksize = 252.
load barrier size = 0.
store barrier size = 0.
Tracksize = 252.
load barrier size = 0.
store barrier size = 0.
Tracksize = 253.
load barrier size = 0.
store barrier size = 0.
Tracksize = 254.
load barrier size = 0.
store barrier size = 0.
Tracksize = 255.
load barrier size = 0.
store barrier size = 0.
Tracksize = 256.
load barrier size = 0.
store barrier size = 0.
Tracksize = 257.
load barrier size = 0.
store barrier size = 0.
Tracksize = 256.
load barrier size = 0.
store barrier size = 0.
Tracksize = 257.
load barrier size = 0.
store barrier size = 0.
Tracksize = 256.
load barrier size = 0.
store barrier size = 0.
Tracksize = 257.
load barrier size = 0.
store barrier size = 0.
Tracksize = 256.
load barrier size = 0.
store barrier size = 0.
Tracksize = 257.
load barrier size = 0.
store barrier size = 0.
Tracksize = 258.
load barrier size = 0.
store barrier size = 0.
Tracksize = 256.
load barrier size = 0.
store barrier size = 0.
Tracksize = 257.
load barrier size = 0.
store barrier size = 0.
Tracksize = 256.
load barrier size = 0.
store barrier size = 0.
Tracksize = 256.
load barrier size = 0.
store barrier size = 0.
Tracksize = 257.
load barrier size = 0.
store barrier size = 0.
Tracksize = 258.
load barrier size = 0.
store barrier size = 0.
Tracksize = 256.
load barrier size = 0.
store barrier size = 0.
Tracksize = 257.
load barrier size = 0.
store barrier size = 0.
Tracksize = 256.
load barrier size = 0.
store barrier size = 0.
Tracksize = 256.
load barrier size = 0.
store barrier size = 0.
Tracksize = 257.
load barrier size = 0.
store barrier size = 0.
Tracksize = 256.
load barrier size = 0.
store barrier size = 0.
Tracksize = 257.
load barrier size = 0.
store barrier size = 0.
Tracksize = 256.
load barrier size = 0.
store barrier size = 0.
Tracksize = 256.
load barrier size = 0.
store barrier size = 0.
Tracksize = 257.
load barrier size = 0.
store barrier size = 0.
Tracksize = 256.
load barrier size = 0.
store barrier size = 0.
Tracksize = 257.
load barrier size = 0.
store barrier size = 0.
Tracksize = 256.
load barrier size = 0.
store barrier size = 0.
Tracksize = 256.
load barrier size = 0.
store barrier size = 0.
Tracksize = 256.
load barrier size = 0.
store barrier size = 0.
Tracksize = 257.
load barrier size = 0.
store barrier size = 0.
Tracksize = 258.
load barrier size = 0.
store barrier size = 0.
Tracksize = 259.
load barrier size = 0.
store barrier size = 0.
Tracksize = 258.
load barrier size = 0.
store barrier size = 0.
Tracksize = 258.
load barrier size = 0.
store barrier size = 0.
Tracksize = 259.
[...]
store barrier size = 0.
Tracksize = 720.
load barrier size = 0.
store barrier size = 0.
Tracksize = 719.
load barrier size = 0.
store barrier size = 0.
Tracksize = 719.
load barrier size = 0.
store barrier size = 0.
Tracksize = 719.
load barrier size = 0.
store barrier size = 0.
Tracksize = 719.
load barrier size = 0.
store barrier size = 0.
Tracksize = 720.
load barrier size = 0.
store barrier size = 0.
Tracksize = 721.
load barrier size = 0.
store barrier size = 0.
Tracksize = 722.
load barrier size = 0.
store barrier size = 0.
Tracksize = 721.
load barrier size = 0.
store barrier size = 0.
Tracksize = 722.
load barrier size = 0.
store barrier size = 0.
Tracksize = 723.
load barrier size = 0.
store barrier size = 0.
Tracksize = 724.
load barrier size = 0.
store barrier size = 0.
Tracksize = 721.
load barrier size = 0.
store barrier size = 0.
Tracksize = 721.
load barrier size = 0.
store barrier size = 0.
Tracksize = 722.
load barrier size = 0.
store barrier size = 0.
Tracksize = 722.
load barrier size = 0.
store barrier size = 0.
Tracksize = 721.
load barrier size = 0.
store barrier size = 0.
Tracksize = 722.
load barrier size = 0.
store barrier size = 0.
Tracksize = 721.
load barrier size = 0.
store barrier size = 0.
Tracksize = 721.
load barrier size = 0.
store barrier size = 0.
Tracksize = 722.
load barrier size = 0.
store barrier size = 0.
Tracksize = 721.
load barrier size = 0.
store barrier size = 0.
Tracksize = 722.
load barrier size = 0.
store barrier size = 0.
Tracksize = 723.
load barrier size = 0.
store barrier size = 0.
Tracksize = 723.
load barrier size = 0.
store barrier size = 0.
Tracksize = 724.
load barrier size = 0.
store barrier size = 0.
Tracksize = 723.
load barrier size = 0.
store barrier size = 0.
Tracksize = 724.
load barrier size = 0.
store barrier size = 0.
Tracksize = 723.
load barrier size = 0.
store barrier size = 0.
Tracksize = 723.
load barrier size = 0.
store barrier size = 0.
Tracksize = 723.
load barrier size = 0.
store barrier size = 0.
Tracksize = 724.
load barrier size = 0.
store barrier size = 0.
Tracksize = 723.
load barrier size = 0.
store barrier size = 0.
Tracksize = 723.
load barrier size = 0.
store barrier size = 0.
Tracksize = 723.
load barrier size = 0.
store barrier size = 0.
Tracksize = 723.
load barrier size = 0.
store barrier size = 0.
Tracksize = 724.
load barrier size = 0.
store barrier size = 0.
Tracksize = 723.
load barrier size = 0.
store barrier size = 0.
Tracksize = 724.
load barrier size = 0.
store barrier size = 0.
Tracksize = 725.
load barrier size = 0.
store barrier size = 0.
Tracksize = 726.
load barrier size = 0.
store barrier size = 0.
Tracksize = 723.
load barrier size = 0.
store barrier size = 0.
Tracksize = 724.
load barrier size = 0.
store barrier size = 0.
Tracksize = 725.
load barrier size = 0.
store barrier size = 0.
Tracksize = 726.
load barrier size = 0.
store barrier size = 0.
Tracksize = 727.
load barrier size = 0.
store barrier size = 0.
Tracksize = 728.
load barrier size = 0.
store barrier size = 0.
Tracksize = 729.
load barrier size = 0.
store barrier size = 0.
Tracksize = 726.
load barrier size = 0.
store barrier size = 0.
Tracksize = 727.
load barrier size = 0.
store barrier size = 0.
Tracksize = 728.
load barrier size = 0.
store barrier size = 0.
Tracksize = 727.
load barrier size = 0.
store barrier size = 0.
Tracksize = 728.
load barrier size = 0.
store barrier size = 0.
Tracksize = 727.
load barrier size = 0.
store barrier size = 0.
Tracksize = 727.
load barrier size = 0.
store barrier size = 0.
Tracksize = 727.
load barrier size = 0.
store barrier size = 0.
Tracksize = 728.
load barrier size = 0.
store barrier size = 0.
Tracksize = 727.
load barrier size = 0.
store barrier size = 0.
Tracksize = 727.
load barrier size = 0.
store barrier size = 0.
Tracksize = 728.
load barrier size = 0.
store barrier size = 0.
Tracksize = 729.
load barrier size = 0.
store barrier size = 0.
Tracksize = 729.
load barrier size = 0.
store barrier size = 0.
Tracksize = 729.
load barrier size = 0.
store barrier size = 0.
Tracksize = 730.
load barrier size = 0.
store barrier size = 0.
Tracksize = 729.
load barrier size = 0.
store barrier size = 0.
Tracksize = 730.
load barrier size = 0.
store barrier size = 0.
Tracksize = 731.
load barrier size = 0.
store barrier size = 0.
Tracksize = 730.
load barrier size = 0.
store barrier size = 0.
Tracksize = 730.
load barrier size = 0.
store barrier size = 0.
Tracksize = 731.
load barrier size = 0.
store barrier size = 0.
Tracksize = 730.
load barrier size = 0.
store barrier size = 0.
Tracksize = 731.
load barrier size = 0.
store barrier size = 0.
Tracksize = 730.
load barrier size = 0.
store barrier size = 0.
Tracksize = 730.
load barrier size = 0.
store barrier size = 0.
Tracksize = 730.
load barrier size = 0.
store barrier size = 0.
Tracksize = 730.
load barrier size = 0.
store barrier size = 0.
Tracksize = 730.
load barrier size = 0.
store barrier size = 0.
Tracksize = 731.
load barrier size = 0.
store barrier size = 0.
Tracksize = 732.
load barrier size = 0.
store barrier size = 0.
Tracksize = 733.
load barrier size = 0.
store barrier size = 0.
Tracksize = 732.
load barrier size = 0.
store barrier size = 0.
Tracksize = 733.
load barrier size = 0.
store barrier size = 0.
Tracksize = 734.
load barrier size = 0.
store barrier size = 0.
Tracksize = 735.
load barrier size = 0.
store barrier size = 0.
Tracksize = 736.
load barrier size = 0.
store barrier size = 0.
Tracksize = 733.
load barrier size = 0.
store barrier size = 0.
Tracksize = 733.
load barrier size = 0.
store barrier size = 0.
Tracksize = 734.
load barrier size = 0.
store barrier size = 0.
Tracksize = 734.
load barrier size = 0.
store barrier size = 0.
Tracksize = 733.
load barrier size = 0.
store barrier size = 0.
Tracksize = 734.
load barrier size = 0.
store barrier size = 0.
Tracksize = 734.
load barrier size = 0.
store barrier size = 0.
Tracksize = 735.
load barrier size = 0.
store barrier size = 0.
Tracksize = 734.
load barrier size = 0.
store barrier size = 0.
Tracksize = 734.
load barrier size = 0.
store barrier size = 0.
Tracksize = 735.
load barrier size = 0.
store barrier size = 0.
Tracksize = 735.
load barrier size = 0.
store barrier size = 0.
Tracksize = 736.
load barrier size = 0.
store barrier size = 0.
Tracksize = 734.
load barrier size = 0.
store barrier size = 0.
Tracksize = 734.
load barrier size = 0.
store barrier size = 0.
Tracksize = 735.
load barrier size = 0.
store barrier size = 0.
Tracksize = 736.
load barrier size = 0.
store barrier size = 0.
Tracksize = 737.
load barrier size = 0.
store barrier size = 0.
Tracksize = 736.
load barrier size = 0.
store barrier size = 0.
Tracksize = 737.
load barrier size = 0.
store barrier size = 0.
Tracksize = 738.
load barrier size = 0.
store barrier size = 0.
Tracksize = 739.
load barrier size = 0.
store barrier size = 0.
Tracksize = 740.
load barrier size = 0.
store barrier size = 0.
Tracksize = 739.
load barrier size = 0.
store barrier size = 0.
Tracksize = 737.
load barrier size = 0.
store barrier size = 0.
Tracksize = 737.
load barrier size = 0.
store barrier size = 0.
Tracksize = 738.
load barrier size = 0.
store barrier size = 0.
Tracksize = 737.
load barrier size = 0.
store barrier size = 0.
Tracksize = 738.
load barrier size = 0.
store barrier size = 0.
Tracksize = 739.
load barrier size = 0.
store barrier size = 0.
Tracksize = 739.
load barrier size = 0.
store barrier size = 0.
Tracksize = 740.
load barrier size = 0.
store barrier size = 0.
Tracksize = 739.
load barrier size = 0.
store barrier size = 0.
Tracksize = 739.
load barrier size = 0.
store barrier size = 0.
Tracksize = 740.
load barrier size = 0.
store barrier size = 0.
Tracksize = 741.
load barrier size = 0.
store barrier size = 0.
Tracksize = 742.
load barrier size = 0.
store barrier size = 0.
Tracksize = 741.
load barrier size = 0.
store barrier size = 0.
Tracksize = 742.
load barrier size = 0.
store barrier size = 0.
Tracksize = 743.
load barrier size = 0.
store barrier size = 0.
Tracksize = 744.
load barrier size = 0.
store barrier size = 0.
Tracksize = 745.
load barrier size = 0.
store barrier size = 0.
Tracksize = 744.
load barrier size = 0.
store barrier size = 0.
Tracksize = 742.
load barrier size = 0.
store barrier size = 0.
Tracksize = 742.
load barrier size = 0.
store barrier size = 0.
Tracksize = 743.
load barrier size = 0.
store barrier size = 0.
Tracksize = 744.
load barrier size = 0.
store barrier size = 0.
Tracksize = 742.
load barrier size = 0.
store barrier size = 0.
Tracksize = 743.
load barrier size = 0.
store barrier size = 0.
Tracksize = 744.
load barrier size = 0.
store barrier size = 0.
Tracksize = 744.
load barrier size = 0.
store barrier size = 0.
Tracksize = 745.
load barrier size = 0.
store barrier size = 0.
Tracksize = 744.
load barrier size = 0.
store barrier size = 0.
Tracksize = 744.
load barrier size = 0.
store barrier size = 0.
Tracksize = 745.
load barrier size = 0.
store barrier size = 0.
Tracksize = 746.
load barrier size = 0.
store barrier size = 0.
Tracksize = 747.
load barrier size = 0.
store barrier size = 0.
Tracksize = 744.
load barrier size = 0.
store barrier size = 0.
Tracksize = 745.
load barrier size = 0.
store barrier size = 0.
Tracksize = 746.
load barrier size = 0.
store barrier size = 0.
Tracksize = 745.
load barrier size = 0.
store barrier size = 0.
Tracksize = 746.
load barrier size = 0.
store barrier size = 0.
Tracksize = 747.
load barrier size = 0.
store barrier size = 0.
Tracksize = 748.
load barrier size = 0.
store barrier size = 0.
Tracksize = 749.
load barrier size = 0.
store barrier size = 0.
Tracksize = 750.
load barrier size = 0.
store barrier size = 0.
Tracksize = 749.
load barrier size = 0.
store barrier size = 0.
Tracksize = 748.
load barrier size = 0.
store barrier size = 0.
Tracksize = 749.
load barrier size = 0.
store barrier size = 0.
Tracksize = 748.
load barrier size = 0.
store barrier size = 0.
Tracksize = 749.
load barrier size = 0.
store barrier size = 0.
Tracksize = 748.
load barrier size = 0.
store barrier size = 0.
Tracksize = 748.
load barrier size = 0.
store barrier size = 0.
Tracksize = 748.
load barrier size = 0.
store barrier size = 0.
Tracksize = 749.
load barrier size = 0.
store barrier size = 0.
Tracksize = 748.
load barrier size = 0.
store barrier size = 0.
Tracksize = 748.
load barrier size = 0.
store barrier size = 0.
Tracksize = 748.
load barrier size = 0.
store barrier size = 0.
Tracksize = 748.
load barrier size = 0.
store barrier size = 0.
Tracksize = 749.
load barrier size = 0.
store barrier size = 0.
Tracksize = 750.
load barrier size = 0.
store barrier size = 0.
Tracksize = 751.
load barrier size = 0.
store barrier size = 0.
Tracksize = 750.
load barrier size = 0.
store barrier size = 0.
Tracksize = 751.
load barrier size = 0.
store barrier size = 0.
Tracksize = 752.
load barrier size = 0.
store barrier size = 0.
Tracksize = 751.
load barrier size = 0.
store barrier size = 0.
Tracksize = 751.
load barrier size = 0.
store barrier size = 0.
Tracksize = 752.
load barrier size = 0.
store barrier size = 0.
Tracksize = 751.
load barrier size = 0.
store barrier size = 0.
Tracksize = 752.
load barrier size = 0.
store barrier size = 0.
Tracksize = 753.
load barrier size = 0.
store barrier size = 0.
Tracksize = 753.
load barrier size = 0.
store barrier size = 0.
Tracksize = 754.
load barrier size = 0.
store barrier size = 0.
Tracksize = 753.
load barrier size = 0.
store barrier size = 0.
Tracksize = 753.
load barrier size = 0.
store barrier size = 0.
Tracksize = 754.
load barrier size = 0.
store barrier size = 0.
Tracksize = 755.
load barrier size = 0.
store barrier size = 0.
Tracksize = 756.
load barrier size = 0.
store barrier size = 0.
Tracksize = 755.
load barrier size = 0.
store barrier size = 0.
Tracksize = 755.
load barrier size = 0.
store barrier size = 0.
Tracksize = 756.
load barrier size = 0.
store barrier size = 0.
Tracksize = 755.
load barrier size = 0.
store barrier size = 0.
Tracksize = 756.
load barrier size = 0.
store barrier size = 0.
Tracksize = 757.
load barrier size = 0.
store barrier size = 0.
Tracksize = 757.
load barrier size = 0.
store barrier size = 0.
Tracksize = 758.
load barrier size = 0.
store barrier size = 0.
Tracksize = 757.
load barrier size = 0.
store barrier size = 0.
Tracksize = 757.
load barrier size = 0.
store barrier size = 0.
Tracksize = 758.
load barrier size = 0.
store barrier size = 0.
Tracksize = 759.
load barrier size = 0.
store barrier size = 0.
Tracksize = 760.
load barrier size = 0.
store barrier size = 0.
Tracksize = 761.
load barrier size = 0.
store barrier size = 0.
Tracksize = 762.
load barrier size = 0.
store barrier size = 0.
Tracksize = 761.
load barrier size = 0.
store barrier size = 0.
Tracksize = 760.
load barrier size = 0.
store barrier size = 0.
Tracksize = 761.
load barrier size = 0.
store barrier size = 0.
Tracksize = 762.
load barrier size = 0.
store barrier size = 0.
Tracksize = 763.
load barrier size = 0.
store barrier size = 0.
Tracksize = 762.
load barrier size = 0.
store barrier size = 0.
Tracksize = 762.
load barrier size = 0.
store barrier size = 0.
Tracksize = 763.
load barrier size = 0.
store barrier size = 0.
Tracksize = 762.
load barrier size = 0.
store barrier size = 0.
Tracksize = 762.
load barrier size = 0.
store barrier size = 0.
Tracksize = 762.
load barrier size = 0.
store barrier size = 0.
Tracksize = 763.
load barrier size = 0.
store barrier size = 0.
Tracksize = 764.
load barrier size = 0.
store barrier size = 0.
Tracksize = 764.
load barrier size = 0.
store barrier size = 0.
Tracksize = 765.
load barrier size = 0.
store barrier size = 0.
Tracksize = 764.
load barrier size = 0.
store barrier size = 0.
Tracksize = 764.
load barrier size = 0.
store barrier size = 0.
Tracksize = 765.
load barrier size = 0.
store barrier size = 0.
Tracksize = 764.
load barrier size = 0.
store barrier size = 0.
Tracksize = 765.
load barrier size = 0.
store barrier size = 0.
Tracksize = 766.
load barrier size = 0.
store barrier size = 0.
Tracksize = 766.
load barrier size = 0.
store barrier size = 0.
Tracksize = 767.
load barrier size = 0.
store barrier size = 0.
Tracksize = 766.
load barrier size = 0.
store barrier size = 0.
Tracksize = 766.
load barrier size = 0.
store barrier size = 0.
Tracksize = 766.
load barrier size = 0.
store barrier size = 0.
Tracksize = 767.
load barrier size = 0.
store barrier size = 0.
Tracksize = 768.
load barrier size = 0.
store barrier size = 0.
Tracksize = 769.
load barrier size = 0.
store barrier size = 0.
Tracksize = 768.
load barrier size = 0.
store barrier size = 0.
Tracksize = 769.
load barrier size = 0.
store barrier size = 0.
Tracksize = 768.
load barrier size = 0.
store barrier size = 0.
Tracksize = 769.
load barrier size = 0.
store barrier size = 0.
Tracksize = 768.
load barrier size = 0.
store barrier size = 0.
Tracksize = 768.
load barrier size = 0.
store barrier size = 0.
Tracksize = 769.
load barrier size = 0.
store barrier size = 0.
Tracksize = 768.
load barrier size = 0.
store barrier size = 0.
Tracksize = 769.
load barrier size = 0.
store barrier size = 0.
Tracksize = 770.
load barrier size = 0.
store barrier size = 0.
Tracksize = 770.
load barrier size = 0.
store barrier size = 0.
Tracksize = 771.
load barrier size = 0.
store barrier size = 0.
Tracksize = 770.
load barrier size = 0.
store barrier size = 0.
Tracksize = 770.
load barrier size = 0.
store barrier size = 0.
Tracksize = 771.
load barrier size = 0.
store barrier size = 0.
Tracksize = 772.
load barrier size = 0.
store barrier size = 0.
Tracksize = 773.
load barrier size = 0.
store barrier size = 0.
Tracksize = 772.
load barrier size = 0.
store barrier size = 0.
Tracksize = 773.
load barrier size = 0.
store barrier size = 0.
Tracksize = 774.
load barrier size = 0.
store barrier size = 0.
Tracksize = 775.
load barrier size = 0.
store barrier size = 0.
Tracksize = 774.
load barrier size = 0.
store barrier size = 0.
Tracksize = 772.
load barrier size = 0.
store barrier size = 0.
Tracksize = 772.
load barrier size = 0.
store barrier size = 0.
Tracksize = 773.
load barrier size = 0.
store barrier size = 0.
Tracksize = 772.
load barrier size = 0.
store barrier size = 0.
Tracksize = 773.
load barrier size = 0.
store barrier size = 0.
Tracksize = 774.
load barrier size = 0.
store barrier size = 0.
Tracksize = 774.
load barrier size = 0.
store barrier size = 0.
Tracksize = 775.
load barrier size = 0.
store barrier size = 0.
Tracksize = 774.
load barrier size = 0.
store barrier size = 0.
Tracksize = 774.
load barrier size = 0.
store barrier size = 0.
Tracksize = 774.
load barrier size = 0.
store barrier size = 0.
Tracksize = 775.
load barrier size = 0.
store barrier size = 0.
Tracksize = 776.
load barrier size = 0.
store barrier size = 0.
Tracksize = 777.
load barrier size = 0.
store barrier size = 0.
Tracksize = 776.
load barrier size = 0.
store barrier size = 0.
Tracksize = 777.
load barrier size = 0.
store barrier size = 0.
Tracksize = 778.
load barrier size = 0.
store barrier size = 0.
Tracksize = 779.
load barrier size = 0.
store barrier size = 0.
Tracksize = 780.
load barrier size = 0.
store barrier size = 0.
Tracksize = 779.
load barrier size = 0.
store barrier size = 0.
Tracksize = 778.
load barrier size = 0.
store barrier size = 0.
Tracksize = 779.
load barrier size = 0.
store barrier size = 0.
Tracksize = 778.
load barrier size = 0.
store barrier size = 0.
Tracksize = 778.
load barrier size = 0.
store barrier size = 0.
Tracksize = 778.
load barrier size = 0.
store barrier size = 0.
Tracksize = 779.
load barrier size = 0.
store barrier size = 0.
Tracksize = 778.
load barrier size = 0.
store barrier size = 0.
Tracksize = 778.
load barrier size = 0.
store barrier size = 0.
Tracksize = 779.
load barrier size = 0.
store barrier size = 0.
Tracksize = 780.
load barrier size = 0.
store barrier size = 0.
Tracksize = 781.
load barrier size = 0.
store barrier size = 0.
Tracksize = 778.
load barrier size = 0.
store barrier size = 0.
Tracksize = 779.
load barrier size = 0.
store barrier size = 0.
Tracksize = 780.
load barrier size = 0.
store barrier size = 0.
Tracksize = 779.
load barrier size = 0.
store barrier size = 0.
Tracksize = 779.
load barrier size = 0.
store barrier size = 0.
Tracksize = 779.
load barrier size = 0.
store barrier size = 0.
Tracksize = 780.
load barrier size = 0.
store barrier size = 0.
Tracksize = 779.
load barrier size = 0.
store barrier size = 0.
Tracksize = 779.
load barrier size = 0.
store barrier size = 0.
Tracksize = 780.
load barrier size = 0.
store barrier size = 0.
Tracksize = 781.
load barrier size = 0.
store barrier size = 0.
Tracksize = 782.
load barrier size = 0.
store barrier size = 0.
Tracksize = 781.
load barrier size = 0.
store barrier size = 0.
Tracksize = 782.
load barrier size = 0.
store barrier size = 0.
Tracksize = 783.
load barrier size = 0.
store barrier size = 0.
Tracksize = 784.
load barrier size = 0.
store barrier size = 0.
Tracksize = 785.
load barrier size = 0.
store barrier size = 0.
Tracksize = 782.
load barrier size = 0.
store barrier size = 0.
Tracksize = 783.
load barrier size = 0.
store barrier size = 0.
Tracksize = 782.
load barrier size = 0.
store barrier size = 0.
Tracksize = 783.
load barrier size = 0.
store barrier size = 0.
Tracksize = 782.
load barrier size = 0.
store barrier size = 0.
Tracksize = 782.
load barrier size = 0.
store barrier size = 0.
Tracksize = 782.
load barrier size = 0.
store barrier size = 0.
Tracksize = 782.
load barrier size = 0.
store barrier size = 0.
Tracksize = 783.
load barrier size = 0.
store barrier size = 0.
Tracksize = 782.
load barrier size = 0.
store barrier size = 0.
Tracksize = 782.
load barrier size = 0.
store barrier size = 0.
Tracksize = 782.
load barrier size = 0.
store barrier size = 0.
Tracksize = 783.
load barrier size = 0.
store barrier size = 0.
Tracksize = 784.
load barrier size = 0.
store barrier size = 0.
Tracksize = 785.
load barrier size = 0.
store barrier size = 0.
