
---------- Begin Simulation Statistics ----------
simSeconds                                   0.016334                       # Number of seconds simulated (Second)
simTicks                                  16334283500                       # Number of ticks simulated (Tick)
finalTick                                 16334283500                       # Number of ticks from beginning of simulation (restored from checkpoints and never reset) (Tick)
simFreq                                  1000000000000                       # The number of ticks per simulated second ((Tick/Second))
hostSeconds                                    180.14                       # Real time elapsed on the host (Second)
hostTickRate                                 90675655                       # The number of ticks simulated per host second (ticks/s) ((Tick/Second))
hostMemory                                     713540                       # Number of bytes of host memory used (Byte)
simInsts                                     50000003                       # Number of instructions simulated (Count)
simOps                                       83044348                       # Number of ops (including micro ops) simulated (Count)
hostInstRate                                   277562                       # Simulator instruction rate (inst/s) ((Count/Second))
hostOpRate                                     460999                       # Simulator op (including micro ops) rate (op/s) ((Count/Second))
system.clk_domain.clock                          1000                       # Clock period in ticks (Tick)
system.cpu.numCycles                         32668568                       # Number of cpu cycles simulated (Cycle)
system.cpu.numWorkItemsStarted                      0                       # Number of work items this cpu started (Count)
system.cpu.numWorkItemsCompleted                    0                       # Number of work items this cpu completed (Count)
system.cpu.instsAdded                       116854480                       # Number of instructions added to the IQ (excludes non-spec) (Count)
system.cpu.nonSpecInstsAdded                      775                       # Number of non-speculative instructions added to the IQ (Count)
system.cpu.instsIssued                      103944930                       # Number of instructions issued (Count)
system.cpu.squashedInstsIssued                  96544                       # Number of squashed instructions issued (Count)
system.cpu.squashedInstsExamined             33810851                       # Number of squashed instructions iterated over during squash; mainly for profiling (Count)
system.cpu.squashedOperandsExamined          49409173                       # Number of squashed operands that are examined and possibly removed from graph (Count)
system.cpu.squashedNonSpecRemoved                  79                       # Number of squashed non-spec instructions that were removed (Count)
system.cpu.numIssuedDist::samples            32478021                       # Number of insts issued each cycle (Count)
system.cpu.numIssuedDist::mean               3.200470                       # Number of insts issued each cycle (Count)
system.cpu.numIssuedDist::stdev              2.240778                       # Number of insts issued each cycle (Count)
system.cpu.numIssuedDist::underflows                0      0.00%      0.00% # Number of insts issued each cycle (Count)
system.cpu.numIssuedDist::0                   7240238     22.29%     22.29% # Number of insts issued each cycle (Count)
system.cpu.numIssuedDist::1                   1295215      3.99%     26.28% # Number of insts issued each cycle (Count)
system.cpu.numIssuedDist::2                   3949258     12.16%     38.44% # Number of insts issued each cycle (Count)
system.cpu.numIssuedDist::3                   3191451      9.83%     48.27% # Number of insts issued each cycle (Count)
system.cpu.numIssuedDist::4                   6350765     19.55%     67.82% # Number of insts issued each cycle (Count)
system.cpu.numIssuedDist::5                   4871920     15.00%     82.82% # Number of insts issued each cycle (Count)
system.cpu.numIssuedDist::6                   3871489     11.92%     94.74% # Number of insts issued each cycle (Count)
system.cpu.numIssuedDist::7                   1476228      4.55%     99.29% # Number of insts issued each cycle (Count)
system.cpu.numIssuedDist::8                    231457      0.71%    100.00% # Number of insts issued each cycle (Count)
system.cpu.numIssuedDist::overflows                 0      0.00%    100.00% # Number of insts issued each cycle (Count)
system.cpu.numIssuedDist::min_value                 0                       # Number of insts issued each cycle (Count)
system.cpu.numIssuedDist::max_value                 8                       # Number of insts issued each cycle (Count)
system.cpu.numIssuedDist::total              32478021                       # Number of insts issued each cycle (Count)
system.cpu.statFuBusy::No_OpClass                   0      0.00%      0.00% # attempts to use FU when none available (Count)
system.cpu.statFuBusy::IntAlu                 1379122     98.57%     98.57% # attempts to use FU when none available (Count)
system.cpu.statFuBusy::IntMult                      0      0.00%     98.57% # attempts to use FU when none available (Count)
system.cpu.statFuBusy::IntDiv                       0      0.00%     98.57% # attempts to use FU when none available (Count)
system.cpu.statFuBusy::FloatAdd                     0      0.00%     98.57% # attempts to use FU when none available (Count)
system.cpu.statFuBusy::FloatCmp                     0      0.00%     98.57% # attempts to use FU when none available (Count)
system.cpu.statFuBusy::FloatCvt                     0      0.00%     98.57% # attempts to use FU when none available (Count)
system.cpu.statFuBusy::FloatMult                    0      0.00%     98.57% # attempts to use FU when none available (Count)
system.cpu.statFuBusy::FloatMultAcc                 0      0.00%     98.57% # attempts to use FU when none available (Count)
system.cpu.statFuBusy::FloatDiv                     0      0.00%     98.57% # attempts to use FU when none available (Count)
system.cpu.statFuBusy::FloatMisc                    0      0.00%     98.57% # attempts to use FU when none available (Count)
system.cpu.statFuBusy::FloatSqrt                    0      0.00%     98.57% # attempts to use FU when none available (Count)
system.cpu.statFuBusy::SimdAdd                      1      0.00%     98.57% # attempts to use FU when none available (Count)
system.cpu.statFuBusy::SimdAddAcc                   0      0.00%     98.57% # attempts to use FU when none available (Count)
system.cpu.statFuBusy::SimdAlu                    188      0.01%     98.58% # attempts to use FU when none available (Count)
system.cpu.statFuBusy::SimdCmp                      0      0.00%     98.58% # attempts to use FU when none available (Count)
system.cpu.statFuBusy::SimdCvt                   1011      0.07%     98.65% # attempts to use FU when none available (Count)
system.cpu.statFuBusy::SimdMisc                    16      0.00%     98.65% # attempts to use FU when none available (Count)
system.cpu.statFuBusy::SimdMult                     0      0.00%     98.65% # attempts to use FU when none available (Count)
system.cpu.statFuBusy::SimdMultAcc                  0      0.00%     98.65% # attempts to use FU when none available (Count)
system.cpu.statFuBusy::SimdShift                   53      0.00%     98.66% # attempts to use FU when none available (Count)
system.cpu.statFuBusy::SimdShiftAcc                 0      0.00%     98.66% # attempts to use FU when none available (Count)
system.cpu.statFuBusy::SimdDiv                      0      0.00%     98.66% # attempts to use FU when none available (Count)
system.cpu.statFuBusy::SimdSqrt                     0      0.00%     98.66% # attempts to use FU when none available (Count)
system.cpu.statFuBusy::SimdFloatAdd                 0      0.00%     98.66% # attempts to use FU when none available (Count)
system.cpu.statFuBusy::SimdFloatAlu                 0      0.00%     98.66% # attempts to use FU when none available (Count)
system.cpu.statFuBusy::SimdFloatCmp                 0      0.00%     98.66% # attempts to use FU when none available (Count)
system.cpu.statFuBusy::SimdFloatCvt                 0      0.00%     98.66% # attempts to use FU when none available (Count)
system.cpu.statFuBusy::SimdFloatDiv                 0      0.00%     98.66% # attempts to use FU when none available (Count)
system.cpu.statFuBusy::SimdFloatMisc                0      0.00%     98.66% # attempts to use FU when none available (Count)
system.cpu.statFuBusy::SimdFloatMult                0      0.00%     98.66% # attempts to use FU when none available (Count)
system.cpu.statFuBusy::SimdFloatMultAcc             0      0.00%     98.66% # attempts to use FU when none available (Count)
system.cpu.statFuBusy::SimdFloatSqrt                0      0.00%     98.66% # attempts to use FU when none available (Count)
system.cpu.statFuBusy::SimdReduceAdd                0      0.00%     98.66% # attempts to use FU when none available (Count)
system.cpu.statFuBusy::SimdReduceAlu                0      0.00%     98.66% # attempts to use FU when none available (Count)
system.cpu.statFuBusy::SimdReduceCmp                0      0.00%     98.66% # attempts to use FU when none available (Count)
system.cpu.statFuBusy::SimdFloatReduceAdd            0      0.00%     98.66% # attempts to use FU when none available (Count)
system.cpu.statFuBusy::SimdFloatReduceCmp            0      0.00%     98.66% # attempts to use FU when none available (Count)
system.cpu.statFuBusy::SimdAes                      0      0.00%     98.66% # attempts to use FU when none available (Count)
system.cpu.statFuBusy::SimdAesMix                   0      0.00%     98.66% # attempts to use FU when none available (Count)
system.cpu.statFuBusy::SimdSha1Hash                 0      0.00%     98.66% # attempts to use FU when none available (Count)
system.cpu.statFuBusy::SimdSha1Hash2                0      0.00%     98.66% # attempts to use FU when none available (Count)
system.cpu.statFuBusy::SimdSha256Hash               0      0.00%     98.66% # attempts to use FU when none available (Count)
system.cpu.statFuBusy::SimdSha256Hash2              0      0.00%     98.66% # attempts to use FU when none available (Count)
system.cpu.statFuBusy::SimdShaSigma2                0      0.00%     98.66% # attempts to use FU when none available (Count)
system.cpu.statFuBusy::SimdShaSigma3                0      0.00%     98.66% # attempts to use FU when none available (Count)
system.cpu.statFuBusy::SimdPredAlu                  0      0.00%     98.66% # attempts to use FU when none available (Count)
system.cpu.statFuBusy::MemRead                  10556      0.75%     99.41% # attempts to use FU when none available (Count)
system.cpu.statFuBusy::MemWrite                  7464      0.53%     99.94% # attempts to use FU when none available (Count)
system.cpu.statFuBusy::FloatMemRead               481      0.03%     99.98% # attempts to use FU when none available (Count)
system.cpu.statFuBusy::FloatMemWrite              292      0.02%    100.00% # attempts to use FU when none available (Count)
system.cpu.statFuBusy::IprAccess                    0      0.00%    100.00% # attempts to use FU when none available (Count)
system.cpu.statFuBusy::InstPrefetch                 0      0.00%    100.00% # attempts to use FU when none available (Count)
system.cpu.statIssuedInstType_0::No_OpClass       816131      0.79%      0.79% # Number of instructions issued per FU type, per thread (Count)
system.cpu.statIssuedInstType_0::IntAlu      78935564     75.94%     76.72% # Number of instructions issued per FU type, per thread (Count)
system.cpu.statIssuedInstType_0::IntMult         1298      0.00%     76.73% # Number of instructions issued per FU type, per thread (Count)
system.cpu.statIssuedInstType_0::IntDiv         40718      0.04%     76.77% # Number of instructions issued per FU type, per thread (Count)
system.cpu.statIssuedInstType_0::FloatAdd      1481391      1.43%     78.19% # Number of instructions issued per FU type, per thread (Count)
system.cpu.statIssuedInstType_0::FloatCmp            0      0.00%     78.19% # Number of instructions issued per FU type, per thread (Count)
system.cpu.statIssuedInstType_0::FloatCvt         1252      0.00%     78.19% # Number of instructions issued per FU type, per thread (Count)
system.cpu.statIssuedInstType_0::FloatMult            0      0.00%     78.19% # Number of instructions issued per FU type, per thread (Count)
system.cpu.statIssuedInstType_0::FloatMultAcc            0      0.00%     78.19% # Number of instructions issued per FU type, per thread (Count)
system.cpu.statIssuedInstType_0::FloatDiv            0      0.00%     78.19% # Number of instructions issued per FU type, per thread (Count)
system.cpu.statIssuedInstType_0::FloatMisc            0      0.00%     78.19% # Number of instructions issued per FU type, per thread (Count)
system.cpu.statIssuedInstType_0::FloatSqrt            0      0.00%     78.19% # Number of instructions issued per FU type, per thread (Count)
system.cpu.statIssuedInstType_0::SimdAdd         7991      0.01%     78.20% # Number of instructions issued per FU type, per thread (Count)
system.cpu.statIssuedInstType_0::SimdAddAcc            0      0.00%     78.20% # Number of instructions issued per FU type, per thread (Count)
system.cpu.statIssuedInstType_0::SimdAlu      2964807      2.85%     81.05% # Number of instructions issued per FU type, per thread (Count)
system.cpu.statIssuedInstType_0::SimdCmp            8      0.00%     81.05% # Number of instructions issued per FU type, per thread (Count)
system.cpu.statIssuedInstType_0::SimdCvt        17739      0.02%     81.07% # Number of instructions issued per FU type, per thread (Count)
system.cpu.statIssuedInstType_0::SimdMisc       752055      0.72%     81.79% # Number of instructions issued per FU type, per thread (Count)
system.cpu.statIssuedInstType_0::SimdMult            0      0.00%     81.79% # Number of instructions issued per FU type, per thread (Count)
system.cpu.statIssuedInstType_0::SimdMultAcc            0      0.00%     81.79% # Number of instructions issued per FU type, per thread (Count)
system.cpu.statIssuedInstType_0::SimdShift         2713      0.00%     81.79% # Number of instructions issued per FU type, per thread (Count)
system.cpu.statIssuedInstType_0::SimdShiftAcc            0      0.00%     81.79% # Number of instructions issued per FU type, per thread (Count)
system.cpu.statIssuedInstType_0::SimdDiv            0      0.00%     81.79% # Number of instructions issued per FU type, per thread (Count)
system.cpu.statIssuedInstType_0::SimdSqrt            0      0.00%     81.79% # Number of instructions issued per FU type, per thread (Count)
system.cpu.statIssuedInstType_0::SimdFloatAdd      1473094      1.42%     83.21% # Number of instructions issued per FU type, per thread (Count)
system.cpu.statIssuedInstType_0::SimdFloatAlu            0      0.00%     83.21% # Number of instructions issued per FU type, per thread (Count)
system.cpu.statIssuedInstType_0::SimdFloatCmp            0      0.00%     83.21% # Number of instructions issued per FU type, per thread (Count)
system.cpu.statIssuedInstType_0::SimdFloatCvt      2946188      2.83%     86.05% # Number of instructions issued per FU type, per thread (Count)
system.cpu.statIssuedInstType_0::SimdFloatDiv            0      0.00%     86.05% # Number of instructions issued per FU type, per thread (Count)
system.cpu.statIssuedInstType_0::SimdFloatMisc            0      0.00%     86.05% # Number of instructions issued per FU type, per thread (Count)
system.cpu.statIssuedInstType_0::SimdFloatMult       736547      0.71%     86.76% # Number of instructions issued per FU type, per thread (Count)
system.cpu.statIssuedInstType_0::SimdFloatMultAcc            0      0.00%     86.76% # Number of instructions issued per FU type, per thread (Count)
system.cpu.statIssuedInstType_0::SimdFloatSqrt            0      0.00%     86.76% # Number of instructions issued per FU type, per thread (Count)
system.cpu.statIssuedInstType_0::SimdReduceAdd            0      0.00%     86.76% # Number of instructions issued per FU type, per thread (Count)
system.cpu.statIssuedInstType_0::SimdReduceAlu            0      0.00%     86.76% # Number of instructions issued per FU type, per thread (Count)
system.cpu.statIssuedInstType_0::SimdReduceCmp            0      0.00%     86.76% # Number of instructions issued per FU type, per thread (Count)
system.cpu.statIssuedInstType_0::SimdFloatReduceAdd            0      0.00%     86.76% # Number of instructions issued per FU type, per thread (Count)
system.cpu.statIssuedInstType_0::SimdFloatReduceCmp            0      0.00%     86.76% # Number of instructions issued per FU type, per thread (Count)
system.cpu.statIssuedInstType_0::SimdAes            0      0.00%     86.76% # Number of instructions issued per FU type, per thread (Count)
system.cpu.statIssuedInstType_0::SimdAesMix            0      0.00%     86.76% # Number of instructions issued per FU type, per thread (Count)
system.cpu.statIssuedInstType_0::SimdSha1Hash            0      0.00%     86.76% # Number of instructions issued per FU type, per thread (Count)
system.cpu.statIssuedInstType_0::SimdSha1Hash2            0      0.00%     86.76% # Number of instructions issued per FU type, per thread (Count)
system.cpu.statIssuedInstType_0::SimdSha256Hash            0      0.00%     86.76% # Number of instructions issued per FU type, per thread (Count)
system.cpu.statIssuedInstType_0::SimdSha256Hash2            0      0.00%     86.76% # Number of instructions issued per FU type, per thread (Count)
system.cpu.statIssuedInstType_0::SimdShaSigma2            0      0.00%     86.76% # Number of instructions issued per FU type, per thread (Count)
system.cpu.statIssuedInstType_0::SimdShaSigma3            0      0.00%     86.76% # Number of instructions issued per FU type, per thread (Count)
system.cpu.statIssuedInstType_0::SimdPredAlu            0      0.00%     86.76% # Number of instructions issued per FU type, per thread (Count)
system.cpu.statIssuedInstType_0::MemRead      7818867      7.52%     94.28% # Number of instructions issued per FU type, per thread (Count)
system.cpu.statIssuedInstType_0::MemWrite      2961559      2.85%     97.13% # Number of instructions issued per FU type, per thread (Count)
system.cpu.statIssuedInstType_0::FloatMemRead      2971318      2.86%     99.98% # Number of instructions issued per FU type, per thread (Count)
system.cpu.statIssuedInstType_0::FloatMemWrite        15690      0.02%    100.00% # Number of instructions issued per FU type, per thread (Count)
system.cpu.statIssuedInstType_0::IprAccess            0      0.00%    100.00% # Number of instructions issued per FU type, per thread (Count)
system.cpu.statIssuedInstType_0::InstPrefetch            0      0.00%    100.00% # Number of instructions issued per FU type, per thread (Count)
system.cpu.statIssuedInstType_0::total      103944930                       # Number of instructions issued per FU type, per thread (Count)
system.cpu.issueRate                         3.181802                       # Inst issue rate ((Count/Cycle))
system.cpu.fuBusy                             1399184                       # FU busy when requested (Count)
system.cpu.fuBusyRate                        0.013461                       # FU busy rate (busy events/executed inst) ((Count/Count))
system.cpu.intInstQueueReads                215111407                       # Number of integer instruction queue reads (Count)
system.cpu.intInstQueueWrites               137237827                       # Number of integer instruction queue writes (Count)
system.cpu.intInstQueueWakeupAccesses        89070323                       # Number of integer instruction queue wakeup accesses (Count)
system.cpu.fpInstQueueReads                  26752197                       # Number of floating instruction queue reads (Count)
system.cpu.fpInstQueueWrites                 13428821                       # Number of floating instruction queue writes (Count)
system.cpu.fpInstQueueWakeupAccesses         13370079                       # Number of floating instruction queue wakeup accesses (Count)
system.cpu.vecInstQueueReads                        0                       # Number of vector instruction queue reads (Count)
system.cpu.vecInstQueueWrites                       0                       # Number of vector instruction queue writes (Count)
system.cpu.vecInstQueueWakeupAccesses               0                       # Number of vector instruction queue wakeup accesses (Count)
system.cpu.intAluAccesses                    91150949                       # Number of integer alu accesses (Count)
system.cpu.fpAluAccesses                     13377034                       # Number of floating point alu accesses (Count)
system.cpu.vecAluAccesses                           0                       # Number of vector alu accesses (Count)
system.cpu.numInsts                         102922305                       # Number of executed instructions (Count)
system.cpu.numLoadInsts                      10619175                       # Number of load instructions executed (Count)
system.cpu.numSquashedInsts                   1022620                       # Number of squashed instructions skipped in execute (Count)
system.cpu.numSwp                                   0                       # Number of swp insts executed (Count)
system.cpu.numNop                                   0                       # Number of nop insts executed (Count)
system.cpu.numRefs                           13593893                       # Number of memory reference insts executed (Count)
system.cpu.numBranches                        8434405                       # Number of branches executed (Count)
system.cpu.numStoreInsts                      2974718                       # Number of stores executed (Count)
system.cpu.numRate                           3.150499                       # Inst execution rate ((Count/Cycle))
system.cpu.timesIdled                            2295                       # Number of times that the entire CPU went into an idle state and unscheduled itself (Count)
system.cpu.idleCycles                          190547                       # Total number of cycles that the CPU has spent unscheduled due to idling (Cycle)
system.cpu.committedInsts                    50000003                       # Number of Instructions Simulated (Count)
system.cpu.committedOps                      83044348                       # Number of Ops (including micro ops) Simulated (Count)
system.cpu.cpi                               0.653371                       # CPI: Cycles Per Instruction ((Cycle/Count))
system.cpu.totalCpi                          0.653371                       # CPI: Total CPI of All Threads ((Cycle/Count))
system.cpu.ipc                               1.530523                       # IPC: Instructions Per Cycle ((Count/Cycle))
system.cpu.totalIpc                          1.530523                       # IPC: Total IPC of All Threads ((Count/Cycle))
system.cpu.intRegfileReads                  133399454                       # Number of integer regfile reads (Count)
system.cpu.intRegfileWrites                  77028240                       # Number of integer regfile writes (Count)
system.cpu.fpRegfileReads                    19308656                       # Number of floating regfile reads (Count)
system.cpu.fpRegfileWrites                   11135793                       # Number of floating regfile writes (Count)
system.cpu.ccRegfileReads                    62600774                       # number of cc regfile reads (Count)
system.cpu.ccRegfileWrites                   54930188                       # number of cc regfile writes (Count)
system.cpu.miscRegfileReads                  33950718                       # number of misc regfile reads (Count)
system.cpu.miscRegfileWrites                      684                       # number of misc regfile writes (Count)
system.cpu.MemDepUnit__0.insertedLoads       10824545                       # Number of loads inserted to the mem dependence unit. (Count)
system.cpu.MemDepUnit__0.insertedStores       4161706                       # Number of stores inserted to the mem dependence unit. (Count)
system.cpu.MemDepUnit__0.conflictingLoads        24772                       # Number of conflicting loads. (Count)
system.cpu.MemDepUnit__0.conflictingStores      1360785                       # Number of conflicting stores. (Count)
system.cpu.MemDepUnit__1.insertedLoads              0                       # Number of loads inserted to the mem dependence unit. (Count)
system.cpu.MemDepUnit__1.insertedStores             0                       # Number of stores inserted to the mem dependence unit. (Count)
system.cpu.MemDepUnit__1.conflictingLoads            0                       # Number of conflicting loads. (Count)
system.cpu.MemDepUnit__1.conflictingStores            0                       # Number of conflicting stores. (Count)
system.cpu.MemDepUnit__2.insertedLoads              0                       # Number of loads inserted to the mem dependence unit. (Count)
system.cpu.MemDepUnit__2.insertedStores             0                       # Number of stores inserted to the mem dependence unit. (Count)
system.cpu.MemDepUnit__2.conflictingLoads            0                       # Number of conflicting loads. (Count)
system.cpu.MemDepUnit__2.conflictingStores            0                       # Number of conflicting stores. (Count)
system.cpu.MemDepUnit__3.insertedLoads              0                       # Number of loads inserted to the mem dependence unit. (Count)
system.cpu.MemDepUnit__3.insertedStores             0                       # Number of stores inserted to the mem dependence unit. (Count)
system.cpu.MemDepUnit__3.conflictingLoads            0                       # Number of conflicting loads. (Count)
system.cpu.MemDepUnit__3.conflictingStores            0                       # Number of conflicting stores. (Count)
system.cpu.branchPred.lookups                10818218                       # Number of BP lookups (Count)
system.cpu.branchPred.condPredicted           9116629                       # Number of conditional branches predicted (Count)
system.cpu.branchPred.condIncorrect            442636                       # Number of conditional branches incorrect (Count)
system.cpu.branchPred.BTBLookups              5605236                       # Number of BTB lookups (Count)
system.cpu.branchPred.BTBHits                 5601354                       # Number of BTB hits (Count)
system.cpu.branchPred.BTBHitRatio            0.999307                       # BTB Hit Ratio (Ratio)
system.cpu.branchPred.RASUsed                  803390                       # Number of times the RAS was used to get a target. (Count)
system.cpu.branchPred.RASIncorrect                 12                       # Number of incorrect RAS predictions. (Count)
system.cpu.branchPred.indirectLookups           12639                       # Number of indirect predictor lookups. (Count)
system.cpu.branchPred.indirectHits               5546                       # Number of indirect target hits. (Count)
system.cpu.branchPred.indirectMisses             7093                       # Number of indirect misses. (Count)
system.cpu.branchPred.indirectMispredicted         1477                       # Number of mispredicted indirect branches. (Count)
system.cpu.commit.commitSquashedInsts        33802772                       # The number of squashed insts skipped by commit (Count)
system.cpu.commit.commitNonSpecStalls             696                       # The number of times commit has been forced to stall to communicate backwards (Count)
system.cpu.commit.branchMispredicts            442214                       # The number of times a branch was mispredicted (Count)
system.cpu.commit.numCommittedDist::samples     28044928                       # Number of insts commited each cycle (Count)
system.cpu.commit.numCommittedDist::mean     2.961118                       # Number of insts commited each cycle (Count)
system.cpu.commit.numCommittedDist::stdev     2.780752                       # Number of insts commited each cycle (Count)
system.cpu.commit.numCommittedDist::underflows            0      0.00%      0.00% # Number of insts commited each cycle (Count)
system.cpu.commit.numCommittedDist::0         4562569     16.27%     16.27% # Number of insts commited each cycle (Count)
system.cpu.commit.numCommittedDist::1         8066090     28.76%     45.03% # Number of insts commited each cycle (Count)
system.cpu.commit.numCommittedDist::2         2832250     10.10%     55.13% # Number of insts commited each cycle (Count)
system.cpu.commit.numCommittedDist::3         3656805     13.04%     68.17% # Number of insts commited each cycle (Count)
system.cpu.commit.numCommittedDist::4         2495349      8.90%     77.07% # Number of insts commited each cycle (Count)
system.cpu.commit.numCommittedDist::5          870477      3.10%     80.17% # Number of insts commited each cycle (Count)
system.cpu.commit.numCommittedDist::6           32103      0.11%     80.28% # Number of insts commited each cycle (Count)
system.cpu.commit.numCommittedDist::7          417336      1.49%     81.77% # Number of insts commited each cycle (Count)
system.cpu.commit.numCommittedDist::8         5111949     18.23%    100.00% # Number of insts commited each cycle (Count)
system.cpu.commit.numCommittedDist::overflows            0      0.00%    100.00% # Number of insts commited each cycle (Count)
system.cpu.commit.numCommittedDist::min_value            0                       # Number of insts commited each cycle (Count)
system.cpu.commit.numCommittedDist::max_value            8                       # Number of insts commited each cycle (Count)
system.cpu.commit.numCommittedDist::total     28044928                       # Number of insts commited each cycle (Count)
system.cpu.commit.instsCommitted             50000003                       # Number of instructions committed (Count)
system.cpu.commit.opsCommitted               83044348                       # Number of ops (including micro ops) committed (Count)
system.cpu.commit.memRefs                    10612850                       # Number of memory references committed (Count)
system.cpu.commit.loads                       8098002                       # Number of loads committed (Count)
system.cpu.commit.amos                              0                       # Number of atomic instructions committed (Count)
system.cpu.commit.membars                           8                       # Number of memory barriers committed (Count)
system.cpu.commit.branches                    7153302                       # Number of branches committed (Count)
system.cpu.commit.vectorInstructions                0                       # Number of committed Vector instructions. (Count)
system.cpu.commit.floating                   13351959                       # Number of committed floating point instructions. (Count)
system.cpu.commit.integer                    72651629                       # Number of committed integer instructions. (Count)
system.cpu.commit.functionCalls                748764                       # Number of function calls committed. (Count)
system.cpu.commit.committedInstType_0::No_OpClass       754022      0.91%      0.91% # Class of committed instruction (Count)
system.cpu.commit.committedInstType_0::IntAlu     61268247     73.78%     74.69% # Class of committed instruction (Count)
system.cpu.commit.committedInstType_0::IntMult         1283      0.00%     74.69% # Class of committed instruction (Count)
system.cpu.commit.committedInstType_0::IntDiv        38076      0.05%     74.73% # Class of committed instruction (Count)
system.cpu.commit.committedInstType_0::FloatAdd      1478942      1.78%     76.51% # Class of committed instruction (Count)
system.cpu.commit.committedInstType_0::FloatCmp            0      0.00%     76.51% # Class of committed instruction (Count)
system.cpu.commit.committedInstType_0::FloatCvt         1216      0.00%     76.52% # Class of committed instruction (Count)
system.cpu.commit.committedInstType_0::FloatMult            0      0.00%     76.52% # Class of committed instruction (Count)
system.cpu.commit.committedInstType_0::FloatMultAcc            0      0.00%     76.52% # Class of committed instruction (Count)
system.cpu.commit.committedInstType_0::FloatDiv            0      0.00%     76.52% # Class of committed instruction (Count)
system.cpu.commit.committedInstType_0::FloatMisc            0      0.00%     76.52% # Class of committed instruction (Count)
system.cpu.commit.committedInstType_0::FloatSqrt            0      0.00%     76.52% # Class of committed instruction (Count)
system.cpu.commit.committedInstType_0::SimdAdd         7318      0.01%     76.52% # Class of committed instruction (Count)
system.cpu.commit.committedInstType_0::SimdAddAcc            0      0.00%     76.52% # Class of committed instruction (Count)
system.cpu.commit.committedInstType_0::SimdAlu      2959983      3.56%     80.09% # Class of committed instruction (Count)
system.cpu.commit.committedInstType_0::SimdCmp            6      0.00%     80.09% # Class of committed instruction (Count)
system.cpu.commit.committedInstType_0::SimdCvt        15384      0.02%     80.11% # Class of committed instruction (Count)
system.cpu.commit.committedInstType_0::SimdMisc       750032      0.90%     81.01% # Class of committed instruction (Count)
system.cpu.commit.committedInstType_0::SimdMult            0      0.00%     81.01% # Class of committed instruction (Count)
system.cpu.commit.committedInstType_0::SimdMultAcc            0      0.00%     81.01% # Class of committed instruction (Count)
system.cpu.commit.committedInstType_0::SimdShift         1161      0.00%     81.01% # Class of committed instruction (Count)
system.cpu.commit.committedInstType_0::SimdShiftAcc            0      0.00%     81.01% # Class of committed instruction (Count)
system.cpu.commit.committedInstType_0::SimdDiv            0      0.00%     81.01% # Class of committed instruction (Count)
system.cpu.commit.committedInstType_0::SimdSqrt            0      0.00%     81.01% # Class of committed instruction (Count)
system.cpu.commit.committedInstType_0::SimdFloatAdd      1473094      1.77%     82.79% # Class of committed instruction (Count)
system.cpu.commit.committedInstType_0::SimdFloatAlu            0      0.00%     82.79% # Class of committed instruction (Count)
system.cpu.commit.committedInstType_0::SimdFloatCmp            0      0.00%     82.79% # Class of committed instruction (Count)
system.cpu.commit.committedInstType_0::SimdFloatCvt      2946187      3.55%     86.33% # Class of committed instruction (Count)
system.cpu.commit.committedInstType_0::SimdFloatDiv            0      0.00%     86.33% # Class of committed instruction (Count)
system.cpu.commit.committedInstType_0::SimdFloatMisc            0      0.00%     86.33% # Class of committed instruction (Count)
system.cpu.commit.committedInstType_0::SimdFloatMult       736547      0.89%     87.22% # Class of committed instruction (Count)
system.cpu.commit.committedInstType_0::SimdFloatMultAcc            0      0.00%     87.22% # Class of committed instruction (Count)
system.cpu.commit.committedInstType_0::SimdFloatSqrt            0      0.00%     87.22% # Class of committed instruction (Count)
system.cpu.commit.committedInstType_0::SimdReduceAdd            0      0.00%     87.22% # Class of committed instruction (Count)
system.cpu.commit.committedInstType_0::SimdReduceAlu            0      0.00%     87.22% # Class of committed instruction (Count)
system.cpu.commit.committedInstType_0::SimdReduceCmp            0      0.00%     87.22% # Class of committed instruction (Count)
system.cpu.commit.committedInstType_0::SimdFloatReduceAdd            0      0.00%     87.22% # Class of committed instruction (Count)
system.cpu.commit.committedInstType_0::SimdFloatReduceCmp            0      0.00%     87.22% # Class of committed instruction (Count)
system.cpu.commit.committedInstType_0::SimdAes            0      0.00%     87.22% # Class of committed instruction (Count)
system.cpu.commit.committedInstType_0::SimdAesMix            0      0.00%     87.22% # Class of committed instruction (Count)
system.cpu.commit.committedInstType_0::SimdSha1Hash            0      0.00%     87.22% # Class of committed instruction (Count)
system.cpu.commit.committedInstType_0::SimdSha1Hash2            0      0.00%     87.22% # Class of committed instruction (Count)
system.cpu.commit.committedInstType_0::SimdSha256Hash            0      0.00%     87.22% # Class of committed instruction (Count)
system.cpu.commit.committedInstType_0::SimdSha256Hash2            0      0.00%     87.22% # Class of committed instruction (Count)
system.cpu.commit.committedInstType_0::SimdShaSigma2            0      0.00%     87.22% # Class of committed instruction (Count)
system.cpu.commit.committedInstType_0::SimdShaSigma3            0      0.00%     87.22% # Class of committed instruction (Count)
system.cpu.commit.committedInstType_0::SimdPredAlu            0      0.00%     87.22% # Class of committed instruction (Count)
system.cpu.commit.committedInstType_0::MemRead      5133158      6.18%     93.40% # Class of committed instruction (Count)
system.cpu.commit.committedInstType_0::MemWrite      2500918      3.01%     96.41% # Class of committed instruction (Count)
system.cpu.commit.committedInstType_0::FloatMemRead      2964844      3.57%     99.98% # Class of committed instruction (Count)
system.cpu.commit.committedInstType_0::FloatMemWrite        13930      0.02%    100.00% # Class of committed instruction (Count)
system.cpu.commit.committedInstType_0::IprAccess            0      0.00%    100.00% # Class of committed instruction (Count)
system.cpu.commit.committedInstType_0::InstPrefetch            0      0.00%    100.00% # Class of committed instruction (Count)
system.cpu.commit.committedInstType_0::total     83044348                       # Class of committed instruction (Count)
system.cpu.commit.commitEligibleSamples       5111949                       # number cycles where commit BW limit reached (Cycle)
system.cpu.dcache.demandHits::cpu.data       12200967                       # number of demand (read+write) hits (Count)
system.cpu.dcache.demandHits::total          12200967                       # number of demand (read+write) hits (Count)
system.cpu.dcache.overallHits::cpu.data      12200967                       # number of overall hits (Count)
system.cpu.dcache.overallHits::total         12200967                       # number of overall hits (Count)
system.cpu.dcache.demandMisses::cpu.data        75747                       # number of demand (read+write) misses (Count)
system.cpu.dcache.demandMisses::total           75747                       # number of demand (read+write) misses (Count)
system.cpu.dcache.overallMisses::cpu.data        75747                       # number of overall misses (Count)
system.cpu.dcache.overallMisses::total          75747                       # number of overall misses (Count)
system.cpu.dcache.demandMissLatency::cpu.data   4518124491                       # number of demand (read+write) miss ticks (Tick)
system.cpu.dcache.demandMissLatency::total   4518124491                       # number of demand (read+write) miss ticks (Tick)
system.cpu.dcache.overallMissLatency::cpu.data   4518124491                       # number of overall miss ticks (Tick)
system.cpu.dcache.overallMissLatency::total   4518124491                       # number of overall miss ticks (Tick)
system.cpu.dcache.demandAccesses::cpu.data     12276714                       # number of demand (read+write) accesses (Count)
system.cpu.dcache.demandAccesses::total      12276714                       # number of demand (read+write) accesses (Count)
system.cpu.dcache.overallAccesses::cpu.data     12276714                       # number of overall (read+write) accesses (Count)
system.cpu.dcache.overallAccesses::total     12276714                       # number of overall (read+write) accesses (Count)
system.cpu.dcache.demandMissRate::cpu.data     0.006170                       # miss rate for demand accesses (Ratio)
system.cpu.dcache.demandMissRate::total      0.006170                       # miss rate for demand accesses (Ratio)
system.cpu.dcache.overallMissRate::cpu.data     0.006170                       # miss rate for overall accesses (Ratio)
system.cpu.dcache.overallMissRate::total     0.006170                       # miss rate for overall accesses (Ratio)
system.cpu.dcache.demandAvgMissLatency::cpu.data 59647.570082                       # average overall miss latency ((Cycle/Count))
system.cpu.dcache.demandAvgMissLatency::total 59647.570082                       # average overall miss latency ((Cycle/Count))
system.cpu.dcache.overallAvgMissLatency::cpu.data 59647.570082                       # average overall miss latency ((Cycle/Count))
system.cpu.dcache.overallAvgMissLatency::total 59647.570082                       # average overall miss latency ((Cycle/Count))
system.cpu.dcache.blockedCycles::no_mshrs        37087                       # number of cycles access was blocked (Cycle)
system.cpu.dcache.blockedCycles::no_targets          464                       # number of cycles access was blocked (Cycle)
system.cpu.dcache.blockedCauses::no_mshrs          960                       # number of times access was blocked (Count)
system.cpu.dcache.blockedCauses::no_targets            9                       # number of times access was blocked (Count)
system.cpu.dcache.avgBlocked::no_mshrs      38.632292                       # average number of cycles each access was blocked ((Cycle/Count))
system.cpu.dcache.avgBlocked::no_targets    51.555556                       # average number of cycles each access was blocked ((Cycle/Count))
system.cpu.dcache.writebacks::writebacks        12438                       # number of writebacks (Count)
system.cpu.dcache.writebacks::total             12438                       # number of writebacks (Count)
system.cpu.dcache.demandMshrHits::cpu.data        45112                       # number of demand (read+write) MSHR hits (Count)
system.cpu.dcache.demandMshrHits::total         45112                       # number of demand (read+write) MSHR hits (Count)
system.cpu.dcache.overallMshrHits::cpu.data        45112                       # number of overall MSHR hits (Count)
system.cpu.dcache.overallMshrHits::total        45112                       # number of overall MSHR hits (Count)
system.cpu.dcache.demandMshrMisses::cpu.data        30635                       # number of demand (read+write) MSHR misses (Count)
system.cpu.dcache.demandMshrMisses::total        30635                       # number of demand (read+write) MSHR misses (Count)
system.cpu.dcache.overallMshrMisses::cpu.data        30635                       # number of overall MSHR misses (Count)
system.cpu.dcache.overallMshrMisses::total        30635                       # number of overall MSHR misses (Count)
system.cpu.dcache.demandMshrMissLatency::cpu.data   1781585491                       # number of demand (read+write) MSHR miss ticks (Tick)
system.cpu.dcache.demandMshrMissLatency::total   1781585491                       # number of demand (read+write) MSHR miss ticks (Tick)
system.cpu.dcache.overallMshrMissLatency::cpu.data   1781585491                       # number of overall MSHR miss ticks (Tick)
system.cpu.dcache.overallMshrMissLatency::total   1781585491                       # number of overall MSHR miss ticks (Tick)
system.cpu.dcache.demandMshrMissRate::cpu.data     0.002495                       # mshr miss ratio for demand accesses (Ratio)
system.cpu.dcache.demandMshrMissRate::total     0.002495                       # mshr miss ratio for demand accesses (Ratio)
system.cpu.dcache.overallMshrMissRate::cpu.data     0.002495                       # mshr miss ratio for overall accesses (Ratio)
system.cpu.dcache.overallMshrMissRate::total     0.002495                       # mshr miss ratio for overall accesses (Ratio)
system.cpu.dcache.demandAvgMshrMissLatency::cpu.data 58155.230651                       # average overall mshr miss latency ((Cycle/Count))
system.cpu.dcache.demandAvgMshrMissLatency::total 58155.230651                       # average overall mshr miss latency ((Cycle/Count))
system.cpu.dcache.overallAvgMshrMissLatency::cpu.data 58155.230651                       # average overall mshr miss latency ((Cycle/Count))
system.cpu.dcache.overallAvgMshrMissLatency::total 58155.230651                       # average overall mshr miss latency ((Cycle/Count))
system.cpu.dcache.replacements                  30378                       # number of replacements (Count)
system.cpu.dcache.ReadReq.hits::cpu.data      9695359                       # number of ReadReq hits (Count)
system.cpu.dcache.ReadReq.hits::total         9695359                       # number of ReadReq hits (Count)
system.cpu.dcache.ReadReq.misses::cpu.data        66494                       # number of ReadReq misses (Count)
system.cpu.dcache.ReadReq.misses::total         66494                       # number of ReadReq misses (Count)
system.cpu.dcache.ReadReq.missLatency::cpu.data   3833473500                       # number of ReadReq miss ticks (Tick)
system.cpu.dcache.ReadReq.missLatency::total   3833473500                       # number of ReadReq miss ticks (Tick)
system.cpu.dcache.ReadReq.accesses::cpu.data      9761853                       # number of ReadReq accesses(hits+misses) (Count)
system.cpu.dcache.ReadReq.accesses::total      9761853                       # number of ReadReq accesses(hits+misses) (Count)
system.cpu.dcache.ReadReq.missRate::cpu.data     0.006812                       # miss rate for ReadReq accesses (Ratio)
system.cpu.dcache.ReadReq.missRate::total     0.006812                       # miss rate for ReadReq accesses (Ratio)
system.cpu.dcache.ReadReq.avgMissLatency::cpu.data 57651.419677                       # average ReadReq miss latency ((Tick/Count))
system.cpu.dcache.ReadReq.avgMissLatency::total 57651.419677                       # average ReadReq miss latency ((Tick/Count))
system.cpu.dcache.ReadReq.mshrHits::cpu.data        45102                       # number of ReadReq MSHR hits (Count)
system.cpu.dcache.ReadReq.mshrHits::total        45102                       # number of ReadReq MSHR hits (Count)
system.cpu.dcache.ReadReq.mshrMisses::cpu.data        21392                       # number of ReadReq MSHR misses (Count)
system.cpu.dcache.ReadReq.mshrMisses::total        21392                       # number of ReadReq MSHR misses (Count)
system.cpu.dcache.ReadReq.mshrMissLatency::cpu.data   1106787000                       # number of ReadReq MSHR miss ticks (Tick)
system.cpu.dcache.ReadReq.mshrMissLatency::total   1106787000                       # number of ReadReq MSHR miss ticks (Tick)
system.cpu.dcache.ReadReq.mshrMissRate::cpu.data     0.002191                       # mshr miss rate for ReadReq accesses (Ratio)
system.cpu.dcache.ReadReq.mshrMissRate::total     0.002191                       # mshr miss rate for ReadReq accesses (Ratio)
system.cpu.dcache.ReadReq.avgMshrMissLatency::cpu.data 51738.360135                       # average ReadReq mshr miss latency ((Tick/Count))
system.cpu.dcache.ReadReq.avgMshrMissLatency::total 51738.360135                       # average ReadReq mshr miss latency ((Tick/Count))
system.cpu.dcache.WriteReq.hits::cpu.data      2505608                       # number of WriteReq hits (Count)
system.cpu.dcache.WriteReq.hits::total        2505608                       # number of WriteReq hits (Count)
system.cpu.dcache.WriteReq.misses::cpu.data         9253                       # number of WriteReq misses (Count)
system.cpu.dcache.WriteReq.misses::total         9253                       # number of WriteReq misses (Count)
system.cpu.dcache.WriteReq.missLatency::cpu.data    684650991                       # number of WriteReq miss ticks (Tick)
system.cpu.dcache.WriteReq.missLatency::total    684650991                       # number of WriteReq miss ticks (Tick)
system.cpu.dcache.WriteReq.accesses::cpu.data      2514861                       # number of WriteReq accesses(hits+misses) (Count)
system.cpu.dcache.WriteReq.accesses::total      2514861                       # number of WriteReq accesses(hits+misses) (Count)
system.cpu.dcache.WriteReq.missRate::cpu.data     0.003679                       # miss rate for WriteReq accesses (Ratio)
system.cpu.dcache.WriteReq.missRate::total     0.003679                       # miss rate for WriteReq accesses (Ratio)
system.cpu.dcache.WriteReq.avgMissLatency::cpu.data 73992.325840                       # average WriteReq miss latency ((Tick/Count))
system.cpu.dcache.WriteReq.avgMissLatency::total 73992.325840                       # average WriteReq miss latency ((Tick/Count))
system.cpu.dcache.WriteReq.mshrHits::cpu.data           10                       # number of WriteReq MSHR hits (Count)
system.cpu.dcache.WriteReq.mshrHits::total           10                       # number of WriteReq MSHR hits (Count)
system.cpu.dcache.WriteReq.mshrMisses::cpu.data         9243                       # number of WriteReq MSHR misses (Count)
system.cpu.dcache.WriteReq.mshrMisses::total         9243                       # number of WriteReq MSHR misses (Count)
system.cpu.dcache.WriteReq.mshrMissLatency::cpu.data    674798491                       # number of WriteReq MSHR miss ticks (Tick)
system.cpu.dcache.WriteReq.mshrMissLatency::total    674798491                       # number of WriteReq MSHR miss ticks (Tick)
system.cpu.dcache.WriteReq.mshrMissRate::cpu.data     0.003675                       # mshr miss rate for WriteReq accesses (Ratio)
system.cpu.dcache.WriteReq.mshrMissRate::total     0.003675                       # mshr miss rate for WriteReq accesses (Ratio)
system.cpu.dcache.WriteReq.avgMshrMissLatency::cpu.data 73006.436330                       # average WriteReq mshr miss latency ((Tick/Count))
system.cpu.dcache.WriteReq.avgMshrMissLatency::total 73006.436330                       # average WriteReq mshr miss latency ((Tick/Count))
system.cpu.dcache.power_state.pwrStateResidencyTicks::UNDEFINED  16334283500                       # Cumulative time (in ticks) in various power states (Tick)
system.cpu.dcache.tags.tagsInUse           255.747747                       # Average ticks per tags in use ((Tick/Count))
system.cpu.dcache.tags.totalRefs             12231601                       # Total number of references to valid blocks. (Count)
system.cpu.dcache.tags.sampledRefs              30634                       # Sample count of references to valid blocks. (Count)
system.cpu.dcache.tags.avgRefs             399.281876                       # Average number of references to valid blocks. ((Count/Count))
system.cpu.dcache.tags.warmupTick              179500                       # The tick when the warmup percentage was hit. (Tick)
system.cpu.dcache.tags.occupancies::cpu.data   255.747747                       # Average occupied blocks per tick, per requestor ((Count/Tick))
system.cpu.dcache.tags.avgOccs::cpu.data     0.999015                       # Average percentage of cache occupancy ((Ratio/Tick))
system.cpu.dcache.tags.avgOccs::total        0.999015                       # Average percentage of cache occupancy ((Ratio/Tick))
system.cpu.dcache.tags.occupanciesTaskId::1024          256                       # Occupied blocks per task id (Count)
system.cpu.dcache.tags.ageTaskId_1024::0            3                       # Occupied blocks per task id, per block age (Count)
system.cpu.dcache.tags.ageTaskId_1024::1           39                       # Occupied blocks per task id, per block age (Count)
system.cpu.dcache.tags.ageTaskId_1024::2          151                       # Occupied blocks per task id, per block age (Count)
system.cpu.dcache.tags.ageTaskId_1024::3            1                       # Occupied blocks per task id, per block age (Count)
system.cpu.dcache.tags.ageTaskId_1024::4           62                       # Occupied blocks per task id, per block age (Count)
system.cpu.dcache.tags.ratioOccsTaskId::1024            1                       # Ratio of occupied blocks and all blocks, per task id (Ratio)
system.cpu.dcache.tags.tagAccesses           24584062                       # Number of tag accesses (Count)
system.cpu.dcache.tags.dataAccesses          24584062                       # Number of data accesses (Count)
system.cpu.dcache.tags.power_state.pwrStateResidencyTicks::UNDEFINED  16334283500                       # Cumulative time (in ticks) in various power states (Tick)
system.cpu.decode.idleCycles                  7536650                       # Number of cycles decode is idle (Cycle)
system.cpu.decode.blockedCycles               5995195                       # Number of cycles decode is blocked (Cycle)
system.cpu.decode.runCycles                  17465851                       # Number of cycles decode is running (Cycle)
system.cpu.decode.unblockCycles               1037164                       # Number of cycles decode is unblocking (Cycle)
system.cpu.decode.squashCycles                 443161                       # Number of cycles decode is squashing (Cycle)
system.cpu.decode.branchResolved              5285270                       # Number of times decode resolved a branch (Count)
system.cpu.decode.branchMispred                  1339                       # Number of times decode detected a branch misprediction (Count)
system.cpu.decode.decodedInsts              124110299                       # Number of instructions handled by decode (Count)
system.cpu.decode.squashedInsts                  6218                       # Number of squashed instructions handled by decode (Count)
system.cpu.dtb_walker_cache.blockedCycles::no_mshrs            0                       # number of cycles access was blocked (Cycle)
system.cpu.dtb_walker_cache.blockedCycles::no_targets            0                       # number of cycles access was blocked (Cycle)
system.cpu.dtb_walker_cache.blockedCauses::no_mshrs            0                       # number of times access was blocked (Count)
system.cpu.dtb_walker_cache.blockedCauses::no_targets            0                       # number of times access was blocked (Count)
system.cpu.dtb_walker_cache.avgBlocked::no_mshrs          nan                       # average number of cycles each access was blocked ((Cycle/Count))
system.cpu.dtb_walker_cache.avgBlocked::no_targets          nan                       # average number of cycles each access was blocked ((Cycle/Count))
system.cpu.dtb_walker_cache.replacements            0                       # number of replacements (Count)
system.cpu.dtb_walker_cache.power_state.pwrStateResidencyTicks::UNDEFINED  16334283500                       # Cumulative time (in ticks) in various power states (Tick)
system.cpu.dtb_walker_cache.tags.tagsInUse            0                       # Average ticks per tags in use ((Tick/Count))
system.cpu.dtb_walker_cache.tags.totalRefs            0                       # Total number of references to valid blocks. (Count)
system.cpu.dtb_walker_cache.tags.sampledRefs            0                       # Sample count of references to valid blocks. (Count)
system.cpu.dtb_walker_cache.tags.avgRefs          nan                       # Average number of references to valid blocks. ((Count/Count))
system.cpu.dtb_walker_cache.tags.warmupTick            0                       # The tick when the warmup percentage was hit. (Tick)
system.cpu.dtb_walker_cache.tags.tagAccesses            0                       # Number of tag accesses (Count)
system.cpu.dtb_walker_cache.tags.dataAccesses            0                       # Number of data accesses (Count)
system.cpu.dtb_walker_cache.tags.power_state.pwrStateResidencyTicks::UNDEFINED  16334283500                       # Cumulative time (in ticks) in various power states (Tick)
system.cpu.fetch.icacheStallCycles            7706041                       # Number of cycles fetch is stalled on an Icache miss (Cycle)
system.cpu.fetch.insts                       78177079                       # Number of instructions fetch has processed (Count)
system.cpu.fetch.branches                    10818218                       # Number of branches that fetch encountered (Count)
system.cpu.fetch.predictedBranches            6410290                       # Number of branches that fetch has predicted taken (Count)
system.cpu.fetch.cycles                      24320251                       # Number of cycles fetch has run and was not squashing or blocked (Cycle)
system.cpu.fetch.squashCycles                  888928                       # Number of cycles fetch has spent squashing (Cycle)
system.cpu.fetch.miscStallCycles                  930                       # Number of cycles fetch has spent waiting on interrupts, or bad addresses, or out of MSHRs (Cycle)
system.cpu.fetch.pendingTrapStallCycles          6276                       # Number of stall cycles due to pending traps (Cycle)
system.cpu.fetch.pendingQuiesceStallCycles           26                       # Number of stall cycles due to pending quiesce instructions (Cycle)
system.cpu.fetch.icacheWaitRetryStallCycles           33                       # Number of stall cycles due to full MSHR (Cycle)
system.cpu.fetch.cacheLines                   7501993                       # Number of cache lines fetched (Count)
system.cpu.fetch.icacheSquashes                 78900                       # Number of outstanding Icache misses that were squashed (Count)
system.cpu.fetch.nisnDist::samples           32478021                       # Number of instructions fetched each cycle (Total) (Count)
system.cpu.fetch.nisnDist::mean              3.925424                       # Number of instructions fetched each cycle (Total) (Count)
system.cpu.fetch.nisnDist::stdev             3.521134                       # Number of instructions fetched each cycle (Total) (Count)
system.cpu.fetch.nisnDist::underflows               0      0.00%      0.00% # Number of instructions fetched each cycle (Total) (Count)
system.cpu.fetch.nisnDist::0                 11837813     36.45%     36.45% # Number of instructions fetched each cycle (Total) (Count)
system.cpu.fetch.nisnDist::1                  1579333      4.86%     41.31% # Number of instructions fetched each cycle (Total) (Count)
system.cpu.fetch.nisnDist::2                   915388      2.82%     44.13% # Number of instructions fetched each cycle (Total) (Count)
system.cpu.fetch.nisnDist::3                   898732      2.77%     46.90% # Number of instructions fetched each cycle (Total) (Count)
system.cpu.fetch.nisnDist::4                  1609686      4.96%     51.85% # Number of instructions fetched each cycle (Total) (Count)
system.cpu.fetch.nisnDist::5                  2255448      6.94%     58.80% # Number of instructions fetched each cycle (Total) (Count)
system.cpu.fetch.nisnDist::6                  1005874      3.10%     61.90% # Number of instructions fetched each cycle (Total) (Count)
system.cpu.fetch.nisnDist::7                  1373503      4.23%     66.12% # Number of instructions fetched each cycle (Total) (Count)
system.cpu.fetch.nisnDist::8                 11002244     33.88%    100.00% # Number of instructions fetched each cycle (Total) (Count)
system.cpu.fetch.nisnDist::overflows                0      0.00%    100.00% # Number of instructions fetched each cycle (Total) (Count)
system.cpu.fetch.nisnDist::min_value                0                       # Number of instructions fetched each cycle (Total) (Count)
system.cpu.fetch.nisnDist::max_value                8                       # Number of instructions fetched each cycle (Total) (Count)
system.cpu.fetch.nisnDist::total             32478021                       # Number of instructions fetched each cycle (Total) (Count)
system.cpu.fetch.branchRate                  0.331151                       # Number of branch fetches per cycle (Ratio)
system.cpu.fetch.rate                        2.393037                       # Number of inst fetches per cycle ((Count/Cycle))
system.cpu.icache.demandHits::cpu.inst        7496825                       # number of demand (read+write) hits (Count)
system.cpu.icache.demandHits::total           7496825                       # number of demand (read+write) hits (Count)
system.cpu.icache.overallHits::cpu.inst       7496825                       # number of overall hits (Count)
system.cpu.icache.overallHits::total          7496825                       # number of overall hits (Count)
system.cpu.icache.demandMisses::cpu.inst         5168                       # number of demand (read+write) misses (Count)
system.cpu.icache.demandMisses::total            5168                       # number of demand (read+write) misses (Count)
system.cpu.icache.overallMisses::cpu.inst         5168                       # number of overall misses (Count)
system.cpu.icache.overallMisses::total           5168                       # number of overall misses (Count)
system.cpu.icache.demandMissLatency::cpu.inst    268451000                       # number of demand (read+write) miss ticks (Tick)
system.cpu.icache.demandMissLatency::total    268451000                       # number of demand (read+write) miss ticks (Tick)
system.cpu.icache.overallMissLatency::cpu.inst    268451000                       # number of overall miss ticks (Tick)
system.cpu.icache.overallMissLatency::total    268451000                       # number of overall miss ticks (Tick)
system.cpu.icache.demandAccesses::cpu.inst      7501993                       # number of demand (read+write) accesses (Count)
system.cpu.icache.demandAccesses::total       7501993                       # number of demand (read+write) accesses (Count)
system.cpu.icache.overallAccesses::cpu.inst      7501993                       # number of overall (read+write) accesses (Count)
system.cpu.icache.overallAccesses::total      7501993                       # number of overall (read+write) accesses (Count)
system.cpu.icache.demandMissRate::cpu.inst     0.000689                       # miss rate for demand accesses (Ratio)
system.cpu.icache.demandMissRate::total      0.000689                       # miss rate for demand accesses (Ratio)
system.cpu.icache.overallMissRate::cpu.inst     0.000689                       # miss rate for overall accesses (Ratio)
system.cpu.icache.overallMissRate::total     0.000689                       # miss rate for overall accesses (Ratio)
system.cpu.icache.demandAvgMissLatency::cpu.inst 51944.852941                       # average overall miss latency ((Cycle/Count))
system.cpu.icache.demandAvgMissLatency::total 51944.852941                       # average overall miss latency ((Cycle/Count))
system.cpu.icache.overallAvgMissLatency::cpu.inst 51944.852941                       # average overall miss latency ((Cycle/Count))
system.cpu.icache.overallAvgMissLatency::total 51944.852941                       # average overall miss latency ((Cycle/Count))
system.cpu.icache.blockedCycles::no_mshrs          859                       # number of cycles access was blocked (Cycle)
system.cpu.icache.blockedCycles::no_targets            0                       # number of cycles access was blocked (Cycle)
system.cpu.icache.blockedCauses::no_mshrs           17                       # number of times access was blocked (Count)
system.cpu.icache.blockedCauses::no_targets            0                       # number of times access was blocked (Count)
system.cpu.icache.avgBlocked::no_mshrs      50.529412                       # average number of cycles each access was blocked ((Cycle/Count))
system.cpu.icache.avgBlocked::no_targets          nan                       # average number of cycles each access was blocked ((Cycle/Count))
system.cpu.icache.writebacks::writebacks         4031                       # number of writebacks (Count)
system.cpu.icache.writebacks::total              4031                       # number of writebacks (Count)
system.cpu.icache.demandMshrHits::cpu.inst          881                       # number of demand (read+write) MSHR hits (Count)
system.cpu.icache.demandMshrHits::total           881                       # number of demand (read+write) MSHR hits (Count)
system.cpu.icache.overallMshrHits::cpu.inst          881                       # number of overall MSHR hits (Count)
system.cpu.icache.overallMshrHits::total          881                       # number of overall MSHR hits (Count)
system.cpu.icache.demandMshrMisses::cpu.inst         4287                       # number of demand (read+write) MSHR misses (Count)
system.cpu.icache.demandMshrMisses::total         4287                       # number of demand (read+write) MSHR misses (Count)
system.cpu.icache.overallMshrMisses::cpu.inst         4287                       # number of overall MSHR misses (Count)
system.cpu.icache.overallMshrMisses::total         4287                       # number of overall MSHR misses (Count)
system.cpu.icache.demandMshrMissLatency::cpu.inst    214500000                       # number of demand (read+write) MSHR miss ticks (Tick)
system.cpu.icache.demandMshrMissLatency::total    214500000                       # number of demand (read+write) MSHR miss ticks (Tick)
system.cpu.icache.overallMshrMissLatency::cpu.inst    214500000                       # number of overall MSHR miss ticks (Tick)
system.cpu.icache.overallMshrMissLatency::total    214500000                       # number of overall MSHR miss ticks (Tick)
system.cpu.icache.demandMshrMissRate::cpu.inst     0.000571                       # mshr miss ratio for demand accesses (Ratio)
system.cpu.icache.demandMshrMissRate::total     0.000571                       # mshr miss ratio for demand accesses (Ratio)
system.cpu.icache.overallMshrMissRate::cpu.inst     0.000571                       # mshr miss ratio for overall accesses (Ratio)
system.cpu.icache.overallMshrMissRate::total     0.000571                       # mshr miss ratio for overall accesses (Ratio)
system.cpu.icache.demandAvgMshrMissLatency::cpu.inst 50034.989503                       # average overall mshr miss latency ((Cycle/Count))
system.cpu.icache.demandAvgMshrMissLatency::total 50034.989503                       # average overall mshr miss latency ((Cycle/Count))
system.cpu.icache.overallAvgMshrMissLatency::cpu.inst 50034.989503                       # average overall mshr miss latency ((Cycle/Count))
system.cpu.icache.overallAvgMshrMissLatency::total 50034.989503                       # average overall mshr miss latency ((Cycle/Count))
system.cpu.icache.replacements                   4031                       # number of replacements (Count)
system.cpu.icache.ReadReq.hits::cpu.inst      7496825                       # number of ReadReq hits (Count)
system.cpu.icache.ReadReq.hits::total         7496825                       # number of ReadReq hits (Count)
system.cpu.icache.ReadReq.misses::cpu.inst         5168                       # number of ReadReq misses (Count)
system.cpu.icache.ReadReq.misses::total          5168                       # number of ReadReq misses (Count)
system.cpu.icache.ReadReq.missLatency::cpu.inst    268451000                       # number of ReadReq miss ticks (Tick)
system.cpu.icache.ReadReq.missLatency::total    268451000                       # number of ReadReq miss ticks (Tick)
system.cpu.icache.ReadReq.accesses::cpu.inst      7501993                       # number of ReadReq accesses(hits+misses) (Count)
system.cpu.icache.ReadReq.accesses::total      7501993                       # number of ReadReq accesses(hits+misses) (Count)
system.cpu.icache.ReadReq.missRate::cpu.inst     0.000689                       # miss rate for ReadReq accesses (Ratio)
system.cpu.icache.ReadReq.missRate::total     0.000689                       # miss rate for ReadReq accesses (Ratio)
system.cpu.icache.ReadReq.avgMissLatency::cpu.inst 51944.852941                       # average ReadReq miss latency ((Tick/Count))
system.cpu.icache.ReadReq.avgMissLatency::total 51944.852941                       # average ReadReq miss latency ((Tick/Count))
system.cpu.icache.ReadReq.mshrHits::cpu.inst          881                       # number of ReadReq MSHR hits (Count)
system.cpu.icache.ReadReq.mshrHits::total          881                       # number of ReadReq MSHR hits (Count)
system.cpu.icache.ReadReq.mshrMisses::cpu.inst         4287                       # number of ReadReq MSHR misses (Count)
system.cpu.icache.ReadReq.mshrMisses::total         4287                       # number of ReadReq MSHR misses (Count)
system.cpu.icache.ReadReq.mshrMissLatency::cpu.inst    214500000                       # number of ReadReq MSHR miss ticks (Tick)
system.cpu.icache.ReadReq.mshrMissLatency::total    214500000                       # number of ReadReq MSHR miss ticks (Tick)
system.cpu.icache.ReadReq.mshrMissRate::cpu.inst     0.000571                       # mshr miss rate for ReadReq accesses (Ratio)
system.cpu.icache.ReadReq.mshrMissRate::total     0.000571                       # mshr miss rate for ReadReq accesses (Ratio)
system.cpu.icache.ReadReq.avgMshrMissLatency::cpu.inst 50034.989503                       # average ReadReq mshr miss latency ((Tick/Count))
system.cpu.icache.ReadReq.avgMshrMissLatency::total 50034.989503                       # average ReadReq mshr miss latency ((Tick/Count))
system.cpu.icache.power_state.pwrStateResidencyTicks::UNDEFINED  16334283500                       # Cumulative time (in ticks) in various power states (Tick)
system.cpu.icache.tags.tagsInUse           255.799622                       # Average ticks per tags in use ((Tick/Count))
system.cpu.icache.tags.totalRefs              7501112                       # Total number of references to valid blocks. (Count)
system.cpu.icache.tags.sampledRefs               4287                       # Sample count of references to valid blocks. (Count)
system.cpu.icache.tags.avgRefs            1749.734546                       # Average number of references to valid blocks. ((Count/Count))
system.cpu.icache.tags.warmupTick               87500                       # The tick when the warmup percentage was hit. (Tick)
system.cpu.icache.tags.occupancies::cpu.inst   255.799622                       # Average occupied blocks per tick, per requestor ((Count/Tick))
system.cpu.icache.tags.avgOccs::cpu.inst     0.999217                       # Average percentage of cache occupancy ((Ratio/Tick))
system.cpu.icache.tags.avgOccs::total        0.999217                       # Average percentage of cache occupancy ((Ratio/Tick))
system.cpu.icache.tags.occupanciesTaskId::1024          256                       # Occupied blocks per task id (Count)
system.cpu.icache.tags.ageTaskId_1024::4          256                       # Occupied blocks per task id, per block age (Count)
system.cpu.icache.tags.ratioOccsTaskId::1024            1                       # Ratio of occupied blocks and all blocks, per task id (Ratio)
system.cpu.icache.tags.tagAccesses           15008273                       # Number of tag accesses (Count)
system.cpu.icache.tags.dataAccesses          15008273                       # Number of data accesses (Count)
system.cpu.icache.tags.power_state.pwrStateResidencyTicks::UNDEFINED  16334283500                       # Cumulative time (in ticks) in various power states (Tick)
system.cpu.iew.idleCycles                           0                       # Number of cycles IEW is idle (Cycle)
system.cpu.iew.squashCycles                    443161                       # Number of cycles IEW is squashing (Cycle)
system.cpu.iew.blockCycles                    5027542                       # Number of cycles IEW is blocking (Cycle)
system.cpu.iew.unblockCycles                    35313                       # Number of cycles IEW is unblocking (Cycle)
system.cpu.iew.dispatchedInsts              116855255                       # Number of instructions dispatched to IQ (Count)
system.cpu.iew.dispSquashedInsts                 1287                       # Number of squashed instructions skipped by dispatch (Count)
system.cpu.iew.dispLoadInsts                 10824545                       # Number of dispatched load instructions (Count)
system.cpu.iew.dispStoreInsts                 4161706                       # Number of dispatched store instructions (Count)
system.cpu.iew.dispNonSpecInsts                   721                       # Number of dispatched non-speculative instructions (Count)
system.cpu.iew.iqFullEvents                     10727                       # Number of times the IQ has become full, causing a stall (Count)
system.cpu.iew.lsqFullEvents                    19523                       # Number of times the LSQ has become full, causing a stall (Count)
system.cpu.iew.memOrderViolationEvents            545                       # Number of memory order violations (Count)
system.cpu.iew.predictedTakenIncorrect         199002                       # Number of branches that were predicted taken incorrectly (Count)
system.cpu.iew.predictedNotTakenIncorrect       246927                       # Number of branches that were predicted not taken incorrectly (Count)
system.cpu.iew.branchMispredicts               445929                       # Number of branch mispredicts detected at execute (Count)
system.cpu.iew.instsToCommit                102523034                       # Cumulative count of insts sent to commit (Count)
system.cpu.iew.writebackCount               102440402                       # Cumulative count of insts written-back (Count)
system.cpu.iew.producerInst                  81760866                       # Number of instructions producing a value (Count)
system.cpu.iew.consumerInst                 151509881                       # Number of instructions consuming a value (Count)
system.cpu.iew.wbRate                        3.135748                       # Insts written-back per cycle ((Count/Cycle))
system.cpu.iew.wbFanout                      0.539640                       # Average fanout of values written-back ((Count/Count))
system.cpu.interrupts.clk_domain.clock           8000                       # Clock period in ticks (Tick)
system.cpu.itb_walker_cache.blockedCycles::no_mshrs            0                       # number of cycles access was blocked (Cycle)
system.cpu.itb_walker_cache.blockedCycles::no_targets            0                       # number of cycles access was blocked (Cycle)
system.cpu.itb_walker_cache.blockedCauses::no_mshrs            0                       # number of times access was blocked (Count)
system.cpu.itb_walker_cache.blockedCauses::no_targets            0                       # number of times access was blocked (Count)
system.cpu.itb_walker_cache.avgBlocked::no_mshrs          nan                       # average number of cycles each access was blocked ((Cycle/Count))
system.cpu.itb_walker_cache.avgBlocked::no_targets          nan                       # average number of cycles each access was blocked ((Cycle/Count))
system.cpu.itb_walker_cache.replacements            0                       # number of replacements (Count)
system.cpu.itb_walker_cache.power_state.pwrStateResidencyTicks::UNDEFINED  16334283500                       # Cumulative time (in ticks) in various power states (Tick)
system.cpu.itb_walker_cache.tags.tagsInUse            0                       # Average ticks per tags in use ((Tick/Count))
system.cpu.itb_walker_cache.tags.totalRefs            0                       # Total number of references to valid blocks. (Count)
system.cpu.itb_walker_cache.tags.sampledRefs            0                       # Sample count of references to valid blocks. (Count)
system.cpu.itb_walker_cache.tags.avgRefs          nan                       # Average number of references to valid blocks. ((Count/Count))
system.cpu.itb_walker_cache.tags.warmupTick            0                       # The tick when the warmup percentage was hit. (Tick)
system.cpu.itb_walker_cache.tags.tagAccesses            0                       # Number of tag accesses (Count)
system.cpu.itb_walker_cache.tags.dataAccesses            0                       # Number of data accesses (Count)
system.cpu.itb_walker_cache.tags.power_state.pwrStateResidencyTicks::UNDEFINED  16334283500                       # Cumulative time (in ticks) in various power states (Tick)
system.cpu.lsq0.forwLoads                      853425                       # Number of loads that had data forwarded from stores (Count)
system.cpu.lsq0.squashedLoads                 2726538                       # Number of loads squashed (Count)
system.cpu.lsq0.ignoredResponses                  185                       # Number of memory responses ignored because the instruction is squashed (Count)
system.cpu.lsq0.memOrderViolation                 545                       # Number of memory ordering violations (Count)
system.cpu.lsq0.squashedStores                1646856                       # Number of stores squashed (Count)
system.cpu.lsq0.rescheduledLoads                   16                       # Number of loads that were rescheduled (Count)
system.cpu.lsq0.blockedByCache                    785                       # Number of times an access to memory failed due to the cache being blocked (Count)
system.cpu.lsq0.loadToUse::samples            8098001                       # Distribution of cycle latency between the first time a load is issued and its completion (Unspecified)
system.cpu.lsq0.loadToUse::mean              3.748513                       # Distribution of cycle latency between the first time a load is issued and its completion (Unspecified)
system.cpu.lsq0.loadToUse::stdev            11.788526                       # Distribution of cycle latency between the first time a load is issued and its completion (Unspecified)
system.cpu.lsq0.loadToUse::0-9                8044719     99.34%     99.34% # Distribution of cycle latency between the first time a load is issued and its completion (Unspecified)
system.cpu.lsq0.loadToUse::10-19                 2327      0.03%     99.37% # Distribution of cycle latency between the first time a load is issued and its completion (Unspecified)
system.cpu.lsq0.loadToUse::20-29                12627      0.16%     99.53% # Distribution of cycle latency between the first time a load is issued and its completion (Unspecified)
system.cpu.lsq0.loadToUse::30-39                  670      0.01%     99.53% # Distribution of cycle latency between the first time a load is issued and its completion (Unspecified)
system.cpu.lsq0.loadToUse::40-49                  191      0.00%     99.54% # Distribution of cycle latency between the first time a load is issued and its completion (Unspecified)
system.cpu.lsq0.loadToUse::50-59                  210      0.00%     99.54% # Distribution of cycle latency between the first time a load is issued and its completion (Unspecified)
system.cpu.lsq0.loadToUse::60-69                  139      0.00%     99.54% # Distribution of cycle latency between the first time a load is issued and its completion (Unspecified)
[...]
system.mem_ctrls.dram.perBankWrBursts::12          386                       # Per bank write bursts (Count)
system.mem_ctrls.dram.perBankWrBursts::13          357                       # Per bank write bursts (Count)
system.mem_ctrls.dram.perBankWrBursts::14          607                       # Per bank write bursts (Count)
system.mem_ctrls.dram.perBankWrBursts::15          465                       # Per bank write bursts (Count)
system.mem_ctrls.dram.totQLat               275105250                       # Total ticks spent queuing (Tick)
system.mem_ctrls.dram.totBusLat             109230000                       # Total ticks spent in databus transfers (Tick)
system.mem_ctrls.dram.totMemAccLat          684717750                       # Total ticks spent from burst creation until serviced by the DRAM (Tick)
system.mem_ctrls.dram.avgQLat                12592.93                       # Average queueing delay per DRAM burst ((Tick/Count))
system.mem_ctrls.dram.avgBusLat               5000.00                       # Average bus latency per DRAM burst ((Tick/Count))
system.mem_ctrls.dram.avgMemAccLat           31342.93                       # Average memory access latency per DRAM burst ((Tick/Count))
system.mem_ctrls.dram.readRowHits               13932                       # Number of row buffer hits during reads (Count)
system.mem_ctrls.dram.writeRowHits               5433                       # Number of row buffer hits during writes (Count)
system.mem_ctrls.dram.readRowHitRate            63.77                       # Row buffer hit rate for reads (Ratio)
system.mem_ctrls.dram.writeRowHitRate           84.61                       # Row buffer hit rate for writes (Ratio)
system.mem_ctrls.dram.bytesPerActivate::samples         8901                       # Bytes accessed per row activation (Byte)
system.mem_ctrls.dram.bytesPerActivate::mean   203.231098                       # Bytes accessed per row activation (Byte)
system.mem_ctrls.dram.bytesPerActivate::gmean   137.428532                       # Bytes accessed per row activation (Byte)
system.mem_ctrls.dram.bytesPerActivate::stdev   227.889333                       # Bytes accessed per row activation (Byte)
system.mem_ctrls.dram.bytesPerActivate::0-127         3659     41.11%     41.11% # Bytes accessed per row activation (Byte)
system.mem_ctrls.dram.bytesPerActivate::128-255         2926     32.87%     73.98% # Bytes accessed per row activation (Byte)
system.mem_ctrls.dram.bytesPerActivate::256-383         1213     13.63%     87.61% # Bytes accessed per row activation (Byte)
system.mem_ctrls.dram.bytesPerActivate::384-511          297      3.34%     90.94% # Bytes accessed per row activation (Byte)
system.mem_ctrls.dram.bytesPerActivate::512-639          186      2.09%     93.03% # Bytes accessed per row activation (Byte)
system.mem_ctrls.dram.bytesPerActivate::640-767          113      1.27%     94.30% # Bytes accessed per row activation (Byte)
system.mem_ctrls.dram.bytesPerActivate::768-895           66      0.74%     95.05% # Bytes accessed per row activation (Byte)
system.mem_ctrls.dram.bytesPerActivate::896-1023           61      0.69%     95.73% # Bytes accessed per row activation (Byte)
system.mem_ctrls.dram.bytesPerActivate::1024-1151          380      4.27%    100.00% # Bytes accessed per row activation (Byte)
system.mem_ctrls.dram.bytesPerActivate::total         8901                       # Bytes accessed per row activation (Byte)
system.mem_ctrls.dram.bytesRead               1398144                       # Total bytes read (Byte)
system.mem_ctrls.dram.bytesWritten             410944                       # Total bytes written (Byte)
system.mem_ctrls.dram.avgRdBW               85.595674                       # Average DRAM read bandwidth in MiBytes/s ((Byte/Second))
system.mem_ctrls.dram.avgWrBW               25.158373                       # Average DRAM write bandwidth in MiBytes/s ((Byte/Second))
system.mem_ctrls.dram.peakBW                 12800.00                       # Theoretical peak bandwidth in MiByte/s ((Byte/Second))
system.mem_ctrls.dram.busUtil                    0.87                       # Data bus utilization in percentage (Ratio)
system.mem_ctrls.dram.busUtilRead                0.67                       # Data bus utilization in percentage for reads (Ratio)
system.mem_ctrls.dram.busUtilWrite               0.20                       # Data bus utilization in percentage for writes (Ratio)
system.mem_ctrls.dram.pageHitRate               68.51                       # Row buffer hit rate, read and write combined (Ratio)
system.mem_ctrls.dram.power_state.pwrStateResidencyTicks::UNDEFINED  16334283500                       # Cumulative time (in ticks) in various power states (Tick)
system.mem_ctrls.dram.rank0.actEnergy        33236700                       # Energy for activate commands per rank (pJ) (Joule)
system.mem_ctrls.dram.rank0.preEnergy        17661930                       # Energy for precharge commands per rank (pJ) (Joule)
system.mem_ctrls.dram.rank0.readEnergy       76954920                       # Energy for read commands per rank (pJ) (Joule)
system.mem_ctrls.dram.rank0.writeEnergy      15618240                       # Energy for write commands per rank (pJ) (Joule)
system.mem_ctrls.dram.rank0.refreshEnergy 1288900080.000000                       # Energy for refresh commands per rank (pJ) (Joule)
system.mem_ctrls.dram.rank0.actBackEnergy   3280391040                       # Energy for active background per rank (pJ) (Joule)
system.mem_ctrls.dram.rank0.preBackEnergy   3509930400                       # Energy for precharge background per rank (pJ) (Joule)
system.mem_ctrls.dram.rank0.actPowerDownEnergy            0                       # Energy for active power-down per rank (pJ) (Joule)
system.mem_ctrls.dram.rank0.prePowerDownEnergy            0                       # Energy for precharge power-down per rank (pJ) (Joule)
system.mem_ctrls.dram.rank0.selfRefreshEnergy            0                       # Energy for self refresh per rank (pJ) (Joule)
system.mem_ctrls.dram.rank0.totalEnergy    8222693310                       # Total energy per rank (pJ) (Joule)
system.mem_ctrls.dram.rank0.averagePower   503.400918                       # Core power per rank (mW) (Watt)
system.mem_ctrls.dram.rank0.totalIdleTime            0                       # Total Idle time Per DRAM Rank (Tick)
system.mem_ctrls.dram.rank0.pwrStateTime::IDLE   9092158750                       # Time in different power states (Tick)
system.mem_ctrls.dram.rank0.pwrStateTime::REF    545220000                       # Time in different power states (Tick)
system.mem_ctrls.dram.rank0.pwrStateTime::SREF            0                       # Time in different power states (Tick)
system.mem_ctrls.dram.rank0.pwrStateTime::PRE_PDN            0                       # Time in different power states (Tick)
system.mem_ctrls.dram.rank0.pwrStateTime::ACT   6696904750                       # Time in different power states (Tick)
system.mem_ctrls.dram.rank0.pwrStateTime::ACT_PDN            0                       # Time in different power states (Tick)
system.mem_ctrls.dram.rank1.actEnergy        30323580                       # Energy for activate commands per rank (pJ) (Joule)
system.mem_ctrls.dram.rank1.preEnergy        16117365                       # Energy for precharge commands per rank (pJ) (Joule)
system.mem_ctrls.dram.rank1.readEnergy       79025520                       # Energy for read commands per rank (pJ) (Joule)
system.mem_ctrls.dram.rank1.writeEnergy      17899380                       # Energy for write commands per rank (pJ) (Joule)
system.mem_ctrls.dram.rank1.refreshEnergy 1288900080.000000                       # Energy for refresh commands per rank (pJ) (Joule)
system.mem_ctrls.dram.rank1.actBackEnergy   3350021100                       # Energy for active background per rank (pJ) (Joule)
system.mem_ctrls.dram.rank1.preBackEnergy   3451294560                       # Energy for precharge background per rank (pJ) (Joule)
system.mem_ctrls.dram.rank1.actPowerDownEnergy            0                       # Energy for active power-down per rank (pJ) (Joule)
system.mem_ctrls.dram.rank1.prePowerDownEnergy            0                       # Energy for precharge power-down per rank (pJ) (Joule)
system.mem_ctrls.dram.rank1.selfRefreshEnergy            0                       # Energy for self refresh per rank (pJ) (Joule)
system.mem_ctrls.dram.rank1.totalEnergy    8233581585                       # Total energy per rank (pJ) (Joule)
system.mem_ctrls.dram.rank1.averagePower   504.067508                       # Core power per rank (mW) (Watt)
system.mem_ctrls.dram.rank1.totalIdleTime            0                       # Total Idle time Per DRAM Rank (Tick)
system.mem_ctrls.dram.rank1.pwrStateTime::IDLE   8939408000                       # Time in different power states (Tick)
system.mem_ctrls.dram.rank1.pwrStateTime::REF    545220000                       # Time in different power states (Tick)
system.mem_ctrls.dram.rank1.pwrStateTime::SREF            0                       # Time in different power states (Tick)
system.mem_ctrls.dram.rank1.pwrStateTime::PRE_PDN            0                       # Time in different power states (Tick)
system.mem_ctrls.dram.rank1.pwrStateTime::ACT   6849655500                       # Time in different power states (Tick)
system.mem_ctrls.dram.rank1.pwrStateTime::ACT_PDN            0                       # Time in different power states (Tick)
system.mem_ctrls.power_state.pwrStateResidencyTicks::UNDEFINED  16334283500                       # Cumulative time (in ticks) in various power states (Tick)
system.membus.transDist::ReadResp               13789                       # Transaction distribution (Count)
system.membus.transDist::WritebackDirty          6447                       # Transaction distribution (Count)
system.membus.transDist::CleanEvict             13094                       # Transaction distribution (Count)
system.membus.transDist::ReadExReq               8119                       # Transaction distribution (Count)
system.membus.transDist::ReadExResp              8118                       # Transaction distribution (Count)
system.membus.transDist::ReadSharedReq          13789                       # Transaction distribution (Count)
system.membus.pktCount_system.l2.mem_side_port::system.mem_ctrls.port        63356                       # Packet count per connected requestor and responder (Count)
system.membus.pktCount_system.l2.mem_side_port::total        63356                       # Packet count per connected requestor and responder (Count)
system.membus.pktCount::total                   63356                       # Packet count per connected requestor and responder (Count)
system.membus.pktSize_system.l2.mem_side_port::system.mem_ctrls.port      1814656                       # Cumulative packet size per connected requestor and responder (Byte)
system.membus.pktSize_system.l2.mem_side_port::total      1814656                       # Cumulative packet size per connected requestor and responder (Byte)
system.membus.pktSize::total                  1814656                       # Cumulative packet size per connected requestor and responder (Byte)
system.membus.snoops                                0                       # Total snoops (Count)
system.membus.snoopTraffic                          0                       # Total snoop traffic (Byte)
system.membus.snoopFanout::samples              21908                       # Request fanout histogram (Count)
system.membus.snoopFanout::mean                     0                       # Request fanout histogram (Count)
system.membus.snoopFanout::stdev                    0                       # Request fanout histogram (Count)
system.membus.snoopFanout::underflows               0      0.00%      0.00% # Request fanout histogram (Count)
system.membus.snoopFanout::0                    21908    100.00%    100.00% # Request fanout histogram (Count)
system.membus.snoopFanout::1                        0      0.00%    100.00% # Request fanout histogram (Count)
system.membus.snoopFanout::overflows                0      0.00%    100.00% # Request fanout histogram (Count)
system.membus.snoopFanout::min_value                0                       # Request fanout histogram (Count)
system.membus.snoopFanout::max_value                0                       # Request fanout histogram (Count)
system.membus.snoopFanout::total                21908                       # Request fanout histogram (Count)
system.membus.power_state.pwrStateResidencyTicks::UNDEFINED  16334283500                       # Cumulative time (in ticks) in various power states (Tick)
system.membus.reqLayer2.occupancy            72754500                       # Layer occupancy (ticks) (Tick)
system.membus.reqLayer2.utilization               0.0                       # Layer utilization (Ratio)
system.membus.respLayer1.occupancy          117436000                       # Layer occupancy (ticks) (Tick)
system.membus.respLayer1.utilization              0.0                       # Layer utilization (Ratio)
system.membus.snoop_filter.totRequests          41449                       # Total number of requests made to the snoop filter. (Count)
system.membus.snoop_filter.hitSingleRequests        19541                       # Number of requests hitting in the snoop filter with a single holder of the requested data. (Count)
system.membus.snoop_filter.hitMultiRequests            0                       # Number of requests hitting in the snoop filter with multiple (>1) holders of the requested data. (Count)
system.membus.snoop_filter.totSnoops                0                       # Total number of snoops made to the snoop filter. (Count)
system.membus.snoop_filter.hitSingleSnoops            0                       # Number of snoops hitting in the snoop filter with a single holder of the requested data. (Count)
system.membus.snoop_filter.hitMultiSnoops            0                       # Number of snoops hitting in the snoop filter with multiple (>1) holders of the requested data. (Count)
system.tol2bus.transDist::ReadResp              25678                       # Transaction distribution (Count)
system.tol2bus.transDist::WritebackDirty        18885                       # Transaction distribution (Count)
system.tol2bus.transDist::WritebackClean         4031                       # Transaction distribution (Count)
system.tol2bus.transDist::CleanEvict            31957                       # Transaction distribution (Count)
system.tol2bus.transDist::ReadExReq              9244                       # Transaction distribution (Count)
system.tol2bus.transDist::ReadExResp             9243                       # Transaction distribution (Count)
system.tol2bus.transDist::ReadCleanReq           4287                       # Transaction distribution (Count)
system.tol2bus.transDist::ReadSharedReq         21391                       # Transaction distribution (Count)
system.tol2bus.pktCount_system.cpu.icache.mem_side_port::system.l2.cpu_side_port        12601                       # Packet count per connected requestor and responder (Count)
system.tol2bus.pktCount_system.cpu.dcache.mem_side_port::system.l2.cpu_side_port        91647                       # Packet count per connected requestor and responder (Count)
system.tol2bus.pktCount::total                 104248                       # Packet count per connected requestor and responder (Count)
system.tol2bus.pktSize_system.cpu.icache.mem_side_port::system.l2.cpu_side_port       532096                       # Cumulative packet size per connected requestor and responder (Byte)
system.tol2bus.pktSize_system.cpu.dcache.mem_side_port::system.l2.cpu_side_port      2756608                       # Cumulative packet size per connected requestor and responder (Byte)
system.tol2bus.pktSize::total                 3288704                       # Cumulative packet size per connected requestor and responder (Byte)
system.tol2bus.snoops                           20468                       # Total snoops (Count)
system.tol2bus.snoopTraffic                    412864                       # Total snoop traffic (Byte)
system.tol2bus.snoopFanout::samples             55386                       # Request fanout histogram (Count)
system.tol2bus.snoopFanout::mean             0.017405                       # Request fanout histogram (Count)
system.tol2bus.snoopFanout::stdev            0.130776                       # Request fanout histogram (Count)
system.tol2bus.snoopFanout::underflows              0      0.00%      0.00% # Request fanout histogram (Count)
system.tol2bus.snoopFanout::0                   54422     98.26%     98.26% # Request fanout histogram (Count)
system.tol2bus.snoopFanout::1                     964      1.74%    100.00% # Request fanout histogram (Count)
system.tol2bus.snoopFanout::2                       0      0.00%    100.00% # Request fanout histogram (Count)
system.tol2bus.snoopFanout::3                       0      0.00%    100.00% # Request fanout histogram (Count)
system.tol2bus.snoopFanout::4                       0      0.00%    100.00% # Request fanout histogram (Count)
system.tol2bus.snoopFanout::overflows               0      0.00%    100.00% # Request fanout histogram (Count)
system.tol2bus.snoopFanout::min_value               0                       # Request fanout histogram (Count)
system.tol2bus.snoopFanout::max_value               1                       # Request fanout histogram (Count)
system.tol2bus.snoopFanout::total               55386                       # Request fanout histogram (Count)
system.tol2bus.power_state.pwrStateResidencyTicks::UNDEFINED  16334283500                       # Cumulative time (in ticks) in various power states (Tick)
system.tol2bus.reqLayer0.occupancy           51134500                       # Layer occupancy (ticks) (Tick)
system.tol2bus.reqLayer0.utilization              0.0                       # Layer utilization (Ratio)
system.tol2bus.respLayer0.occupancy           6434492                       # Layer occupancy (ticks) (Tick)
system.tol2bus.respLayer0.utilization             0.0                       # Layer utilization (Ratio)
system.tol2bus.respLayer1.occupancy          45951998                       # Layer occupancy (ticks) (Tick)
system.tol2bus.respLayer1.utilization             0.0                       # Layer utilization (Ratio)
system.tol2bus.snoop_filter.totRequests         69331                       # Total number of requests made to the snoop filter. (Count)
system.tol2bus.snoop_filter.hitSingleRequests        34409                       # Number of requests hitting in the snoop filter with a single holder of the requested data. (Count)
system.tol2bus.snoop_filter.hitMultiRequests           10                       # Number of requests hitting in the snoop filter with multiple (>1) holders of the requested data. (Count)
system.tol2bus.snoop_filter.totSnoops             954                       # Total number of snoops made to the snoop filter. (Count)
system.tol2bus.snoop_filter.hitSingleSnoops          954                       # Number of snoops hitting in the snoop filter with a single holder of the requested data. (Count)
system.tol2bus.snoop_filter.hitMultiSnoops            0                       # Number of snoops hitting in the snoop filter with multiple (>1) holders of the requested data. (Count)
system.voltage_domain.voltage                       1                       # Voltage in Volts (Volt)
system.workload.inst.arm                            0                       # number of arm instructions executed (Count)
system.workload.inst.quiesce                        0                       # number of quiesce instructions executed (Count)

---------- End Simulation Statistics   ----------
