
---------- Begin Simulation Statistics ----------
simSeconds                                   0.016354                       # Number of seconds simulated (Second)
simTicks                                  16354413000                       # Number of ticks simulated (Tick)
finalTick                                 16354413000                       # Number of ticks from beginning of simulation (restored from checkpoints and never reset) (Tick)
simFreq                                  1000000000000                       # The number of ticks per simulated second ((Tick/Second))
hostSeconds                                    179.01                       # Real time elapsed on the host (Second)
hostTickRate                                 91362641                       # The number of ticks simulated per host second (ticks/s) ((Tick/Second))
hostMemory                                     712508                       # Number of bytes of host memory used (Byte)
simInsts                                     50000003                       # Number of instructions simulated (Count)
simOps                                       83044348                       # Number of ops (including micro ops) simulated (Count)
hostInstRate                                   279321                       # Simulator instruction rate (inst/s) ((Count/Second))
hostOpRate                                     463920                       # Simulator op (including micro ops) rate (op/s) ((Count/Second))
system.clk_domain.clock                          1000                       # Clock period in ticks (Tick)
system.cpu.numCycles                         32708827                       # Number of cpu cycles simulated (Cycle)
system.cpu.numWorkItemsStarted                      0                       # Number of work items this cpu started (Count)
system.cpu.numWorkItemsCompleted                    0                       # Number of work items this cpu completed (Count)
system.cpu.instsAdded                       117026442                       # Number of instructions added to the IQ (excludes non-spec) (Count)
system.cpu.nonSpecInstsAdded                      765                       # Number of non-speculative instructions added to the IQ (Count)
system.cpu.instsIssued                      104063868                       # Number of instructions issued (Count)
system.cpu.squashedInstsIssued                  96833                       # Number of squashed instructions issued (Count)
system.cpu.squashedInstsExamined             33982803                       # Number of squashed instructions iterated over during squash; mainly for profiling (Count)
system.cpu.squashedOperandsExamined          49640502                       # Number of squashed operands that are examined and possibly removed from graph (Count)
system.cpu.squashedNonSpecRemoved                  69                       # Number of squashed non-spec instructions that were removed (Count)
system.cpu.numIssuedDist::samples            32518721                       # Number of insts issued each cycle (Count)
system.cpu.numIssuedDist::mean               3.200122                       # Number of insts issued each cycle (Count)
system.cpu.numIssuedDist::stdev              2.240359                       # Number of insts issued each cycle (Count)
system.cpu.numIssuedDist::underflows                0      0.00%      0.00% # Number of insts issued each cycle (Count)
system.cpu.numIssuedDist::0                   7243134     22.27%     22.27% # Number of insts issued each cycle (Count)
system.cpu.numIssuedDist::1                   1301785      4.00%     26.28% # Number of insts issued each cycle (Count)
system.cpu.numIssuedDist::2                   3957444     12.17%     38.45% # Number of insts issued each cycle (Count)
system.cpu.numIssuedDist::3                   3200921      9.84%     48.29% # Number of insts issued each cycle (Count)
system.cpu.numIssuedDist::4                   6358495     19.55%     67.84% # Number of insts issued each cycle (Count)
system.cpu.numIssuedDist::5                   4874139     14.99%     82.83% # Number of insts issued each cycle (Count)
system.cpu.numIssuedDist::6                   3873330     11.91%     94.74% # Number of insts issued each cycle (Count)
system.cpu.numIssuedDist::7                   1476007      4.54%     99.28% # Number of insts issued each cycle (Count)
system.cpu.numIssuedDist::8                    233466      0.72%    100.00% # Number of insts issued each cycle (Count)
system.cpu.numIssuedDist::overflows                 0      0.00%    100.00% # Number of insts issued each cycle (Count)
system.cpu.numIssuedDist::min_value                 0                       # Number of insts issued each cycle (Count)
system.cpu.numIssuedDist::max_value                 8                       # Number of insts issued each cycle (Count)
system.cpu.numIssuedDist::total              32518721                       # Number of insts issued each cycle (Count)
system.cpu.statFuBusy::No_OpClass                   0      0.00%      0.00% # attempts to use FU when none available (Count)
system.cpu.statFuBusy::IntAlu                 1377668     98.52%     98.52% # attempts to use FU when none available (Count)
system.cpu.statFuBusy::IntMult                      0      0.00%     98.52% # attempts to use FU when none available (Count)
system.cpu.statFuBusy::IntDiv                       0      0.00%     98.52% # attempts to use FU when none available (Count)
system.cpu.statFuBusy::FloatAdd                     0      0.00%     98.52% # attempts to use FU when none available (Count)
system.cpu.statFuBusy::FloatCmp                     0      0.00%     98.52% # attempts to use FU when none available (Count)
system.cpu.statFuBusy::FloatCvt                     0      0.00%     98.52% # attempts to use FU when none available (Count)
system.cpu.statFuBusy::FloatMult                    0      0.00%     98.52% # attempts to use FU when none available (Count)
system.cpu.statFuBusy::FloatMultAcc                 0      0.00%     98.52% # attempts to use FU when none available (Count)
system.cpu.statFuBusy::FloatDiv                     0      0.00%     98.52% # attempts to use FU when none available (Count)
system.cpu.statFuBusy::FloatMisc                    0      0.00%     98.52% # attempts to use FU when none available (Count)
system.cpu.statFuBusy::FloatSqrt                    0      0.00%     98.52% # attempts to use FU when none available (Count)
system.cpu.statFuBusy::SimdAdd                      1      0.00%     98.52% # attempts to use FU when none available (Count)
system.cpu.statFuBusy::SimdAddAcc                   0      0.00%     98.52% # attempts to use FU when none available (Count)
system.cpu.statFuBusy::SimdAlu                    188      0.01%     98.53% # attempts to use FU when none available (Count)
system.cpu.statFuBusy::SimdCmp                      0      0.00%     98.53% # attempts to use FU when none available (Count)
system.cpu.statFuBusy::SimdCvt                   1015      0.07%     98.61% # attempts to use FU when none available (Count)
system.cpu.statFuBusy::SimdMisc                    16      0.00%     98.61% # attempts to use FU when none available (Count)
system.cpu.statFuBusy::SimdMult                     0      0.00%     98.61% # attempts to use FU when none available (Count)
system.cpu.statFuBusy::SimdMultAcc                  0      0.00%     98.61% # attempts to use FU when none available (Count)
system.cpu.statFuBusy::SimdShift                   52      0.00%     98.61% # attempts to use FU when none available (Count)
system.cpu.statFuBusy::SimdShiftAcc                 0      0.00%     98.61% # attempts to use FU when none available (Count)
system.cpu.statFuBusy::SimdDiv                      0      0.00%     98.61% # attempts to use FU when none available (Count)
system.cpu.statFuBusy::SimdSqrt                     0      0.00%     98.61% # attempts to use FU when none available (Count)
system.cpu.statFuBusy::SimdFloatAdd                 0      0.00%     98.61% # attempts to use FU when none available (Count)
system.cpu.statFuBusy::SimdFloatAlu                 0      0.00%     98.61% # attempts to use FU when none available (Count)
system.cpu.statFuBusy::SimdFloatCmp                 0      0.00%     98.61% # attempts to use FU when none available (Count)
system.cpu.statFuBusy::SimdFloatCvt                 0      0.00%     98.61% # attempts to use FU when none available (Count)
system.cpu.statFuBusy::SimdFloatDiv                 0      0.00%     98.61% # attempts to use FU when none available (Count)
system.cpu.statFuBusy::SimdFloatMisc                0      0.00%     98.61% # attempts to use FU when none available (Count)
system.cpu.statFuBusy::SimdFloatMult                0      0.00%     98.61% # attempts to use FU when none available (Count)
system.cpu.statFuBusy::SimdFloatMultAcc             0      0.00%     98.61% # attempts to use FU when none available (Count)
system.cpu.statFuBusy::SimdFloatSqrt                0      0.00%     98.61% # attempts to use FU when none available (Count)
system.cpu.statFuBusy::SimdReduceAdd                0      0.00%     98.61% # attempts to use FU when none available (Count)
system.cpu.statFuBusy::SimdReduceAlu                0      0.00%     98.61% # attempts to use FU when none available (Count)
system.cpu.statFuBusy::SimdReduceCmp                0      0.00%     98.61% # attempts to use FU when none available (Count)
system.cpu.statFuBusy::SimdFloatReduceAdd            0      0.00%     98.61% # attempts to use FU when none available (Count)
system.cpu.statFuBusy::SimdFloatReduceCmp            0      0.00%     98.61% # attempts to use FU when none available (Count)
system.cpu.statFuBusy::SimdAes                      0      0.00%     98.61% # attempts to use FU when none available (Count)
system.cpu.statFuBusy::SimdAesMix                   0      0.00%     98.61% # attempts to use FU when none available (Count)
system.cpu.statFuBusy::SimdSha1Hash                 0      0.00%     98.61% # attempts to use FU when none available (Count)
system.cpu.statFuBusy::SimdSha1Hash2                0      0.00%     98.61% # attempts to use FU when none available (Count)
system.cpu.statFuBusy::SimdSha256Hash               0      0.00%     98.61% # attempts to use FU when none available (Count)
system.cpu.statFuBusy::SimdSha256Hash2              0      0.00%     98.61% # attempts to use FU when none available (Count)
system.cpu.statFuBusy::SimdShaSigma2                0      0.00%     98.61% # attempts to use FU when none available (Count)
system.cpu.statFuBusy::SimdShaSigma3                0      0.00%     98.61% # attempts to use FU when none available (Count)
system.cpu.statFuBusy::SimdPredAlu                  0      0.00%     98.61% # attempts to use FU when none available (Count)
system.cpu.statFuBusy::MemRead                  11147      0.80%     99.41% # attempts to use FU when none available (Count)
system.cpu.statFuBusy::MemWrite                  7476      0.53%     99.94% # attempts to use FU when none available (Count)
system.cpu.statFuBusy::FloatMemRead               499      0.04%     99.98% # attempts to use FU when none available (Count)
system.cpu.statFuBusy::FloatMemWrite              314      0.02%    100.00% # attempts to use FU when none available (Count)
system.cpu.statFuBusy::IprAccess                    0      0.00%    100.00% # attempts to use FU when none available (Count)
system.cpu.statFuBusy::InstPrefetch                 0      0.00%    100.00% # attempts to use FU when none available (Count)
system.cpu.statIssuedInstType_0::No_OpClass       815875      0.78%      0.78% # Number of instructions issued per FU type, per thread (Count)
system.cpu.statIssuedInstType_0::IntAlu      79014520     75.93%     76.71% # Number of instructions issued per FU type, per thread (Count)
system.cpu.statIssuedInstType_0::IntMult         1298      0.00%     76.71% # Number of instructions issued per FU type, per thread (Count)
system.cpu.statIssuedInstType_0::IntDiv         40715      0.04%     76.75% # Number of instructions issued per FU type, per thread (Count)
system.cpu.statIssuedInstType_0::FloatAdd      1481377      1.42%     78.18% # Number of instructions issued per FU type, per thread (Count)
system.cpu.statIssuedInstType_0::FloatCmp            0      0.00%     78.18% # Number of instructions issued per FU type, per thread (Count)
system.cpu.statIssuedInstType_0::FloatCvt         1252      0.00%     78.18% # Number of instructions issued per FU type, per thread (Count)
system.cpu.statIssuedInstType_0::FloatMult            0      0.00%     78.18% # Number of instructions issued per FU type, per thread (Count)
system.cpu.statIssuedInstType_0::FloatMultAcc            0      0.00%     78.18% # Number of instructions issued per FU type, per thread (Count)
system.cpu.statIssuedInstType_0::FloatDiv            0      0.00%     78.18% # Number of instructions issued per FU type, per thread (Count)
system.cpu.statIssuedInstType_0::FloatMisc            0      0.00%     78.18% # Number of instructions issued per FU type, per thread (Count)
system.cpu.statIssuedInstType_0::FloatSqrt            0      0.00%     78.18% # Number of instructions issued per FU type, per thread (Count)
system.cpu.statIssuedInstType_0::SimdAdd         7983      0.01%     78.19% # Number of instructions issued per FU type, per thread (Count)
system.cpu.statIssuedInstType_0::SimdAddAcc            0      0.00%     78.19% # Number of instructions issued per FU type, per thread (Count)
system.cpu.statIssuedInstType_0::SimdAlu      2964474      2.85%     81.03% # Number of instructions issued per FU type, per thread (Count)
system.cpu.statIssuedInstType_0::SimdCmp            8      0.00%     81.03% # Number of instructions issued per FU type, per thread (Count)
system.cpu.statIssuedInstType_0::SimdCvt        17724      0.02%     81.05% # Number of instructions issued per FU type, per thread (Count)
system.cpu.statIssuedInstType_0::SimdMisc       752052      0.72%     81.77% # Number of instructions issued per FU type, per thread (Count)
system.cpu.statIssuedInstType_0::SimdMult            0      0.00%     81.77% # Number of instructions issued per FU type, per thread (Count)
system.cpu.statIssuedInstType_0::SimdMultAcc            0      0.00%     81.77% # Number of instructions issued per FU type, per thread (Count)
system.cpu.statIssuedInstType_0::SimdShift         2723      0.00%     81.78% # Number of instructions issued per FU type, per thread (Count)
system.cpu.statIssuedInstType_0::SimdShiftAcc            0      0.00%     81.78% # Number of instructions issued per FU type, per thread (Count)
system.cpu.statIssuedInstType_0::SimdDiv            0      0.00%     81.78% # Number of instructions issued per FU type, per thread (Count)
system.cpu.statIssuedInstType_0::SimdSqrt            0      0.00%     81.78% # Number of instructions issued per FU type, per thread (Count)
system.cpu.statIssuedInstType_0::SimdFloatAdd      1473094      1.42%     83.19% # Number of instructions issued per FU type, per thread (Count)
system.cpu.statIssuedInstType_0::SimdFloatAlu            0      0.00%     83.19% # Number of instructions issued per FU type, per thread (Count)
system.cpu.statIssuedInstType_0::SimdFloatCmp            0      0.00%     83.19% # Number of instructions issued per FU type, per thread (Count)
system.cpu.statIssuedInstType_0::SimdFloatCvt      2946188      2.83%     86.02% # Number of instructions issued per FU type, per thread (Count)
system.cpu.statIssuedInstType_0::SimdFloatDiv            0      0.00%     86.02% # Number of instructions issued per FU type, per thread (Count)
system.cpu.statIssuedInstType_0::SimdFloatMisc            0      0.00%     86.02% # Number of instructions issued per FU type, per thread (Count)
system.cpu.statIssuedInstType_0::SimdFloatMult       736547      0.71%     86.73% # Number of instructions issued per FU type, per thread (Count)
system.cpu.statIssuedInstType_0::SimdFloatMultAcc            0      0.00%     86.73% # Number of instructions issued per FU type, per thread (Count)
system.cpu.statIssuedInstType_0::SimdFloatSqrt            0      0.00%     86.73% # Number of instructions issued per FU type, per thread (Count)
system.cpu.statIssuedInstType_0::SimdReduceAdd            0      0.00%     86.73% # Number of instructions issued per FU type, per thread (Count)
system.cpu.statIssuedInstType_0::SimdReduceAlu            0      0.00%     86.73% # Number of instructions issued per FU type, per thread (Count)
system.cpu.statIssuedInstType_0::SimdReduceCmp            0      0.00%     86.73% # Number of instructions issued per FU type, per thread (Count)
system.cpu.statIssuedInstType_0::SimdFloatReduceAdd            0      0.00%     86.73% # Number of instructions issued per FU type, per thread (Count)
system.cpu.statIssuedInstType_0::SimdFloatReduceCmp            0      0.00%     86.73% # Number of instructions issued per FU type, per thread (Count)
system.cpu.statIssuedInstType_0::SimdAes            0      0.00%     86.73% # Number of instructions issued per FU type, per thread (Count)
system.cpu.statIssuedInstType_0::SimdAesMix            0      0.00%     86.73% # Number of instructions issued per FU type, per thread (Count)
system.cpu.statIssuedInstType_0::SimdSha1Hash            0      0.00%     86.73% # Number of instructions issued per FU type, per thread (Count)
system.cpu.statIssuedInstType_0::SimdSha1Hash2            0      0.00%     86.73% # Number of instructions issued per FU type, per thread (Count)
system.cpu.statIssuedInstType_0::SimdSha256Hash            0      0.00%     86.73% # Number of instructions issued per FU type, per thread (Count)
system.cpu.statIssuedInstType_0::SimdSha256Hash2            0      0.00%     86.73% # Number of instructions issued per FU type, per thread (Count)
system.cpu.statIssuedInstType_0::SimdShaSigma2            0      0.00%     86.73% # Number of instructions issued per FU type, per thread (Count)
system.cpu.statIssuedInstType_0::SimdShaSigma3            0      0.00%     86.73% # Number of instructions issued per FU type, per thread (Count)
system.cpu.statIssuedInstType_0::SimdPredAlu            0      0.00%     86.73% # Number of instructions issued per FU type, per thread (Count)
system.cpu.statIssuedInstType_0::MemRead      7842239      7.54%     94.27% # Number of instructions issued per FU type, per thread (Count)
system.cpu.statIssuedInstType_0::MemWrite      2978579      2.86%     97.13% # Number of instructions issued per FU type, per thread (Count)
system.cpu.statIssuedInstType_0::FloatMemRead      2971262      2.86%     99.98% # Number of instructions issued per FU type, per thread (Count)
system.cpu.statIssuedInstType_0::FloatMemWrite        15958      0.02%    100.00% # Number of instructions issued per FU type, per thread (Count)
system.cpu.statIssuedInstType_0::IprAccess            0      0.00%    100.00% # Number of instructions issued per FU type, per thread (Count)
system.cpu.statIssuedInstType_0::InstPrefetch            0      0.00%    100.00% # Number of instructions issued per FU type, per thread (Count)
system.cpu.statIssuedInstType_0::total      104063868                       # Number of instructions issued per FU type, per thread (Count)
system.cpu.issueRate                         3.181522                       # Inst issue rate ((Count/Cycle))
system.cpu.fuBusy                             1398376                       # FU busy when requested (Count)
system.cpu.fuBusyRate                        0.013438                       # FU busy rate (busy events/executed inst) ((Count/Count))
system.cpu.intInstQueueReads                215389707                       # Number of integer instruction queue reads (Count)
system.cpu.intInstQueueWrites               137588067                       # Number of integer instruction queue writes (Count)
system.cpu.intInstQueueWakeupAccesses        89180211                       # Number of integer instruction queue wakeup accesses (Count)
system.cpu.fpInstQueueReads                  26751954                       # Number of floating instruction queue reads (Count)
system.cpu.fpInstQueueWrites                 13426919                       # Number of floating instruction queue writes (Count)
system.cpu.fpInstQueueWakeupAccesses         13370095                       # Number of floating instruction queue wakeup accesses (Count)
system.cpu.vecInstQueueReads                        0                       # Number of vector instruction queue reads (Count)
system.cpu.vecInstQueueWrites                       0                       # Number of vector instruction queue writes (Count)
system.cpu.vecInstQueueWakeupAccesses               0                       # Number of vector instruction queue wakeup accesses (Count)
system.cpu.intAluAccesses                    91269449                       # Number of integer alu accesses (Count)
system.cpu.fpAluAccesses                     13376920                       # Number of floating point alu accesses (Count)
system.cpu.vecAluAccesses                           0                       # Number of vector alu accesses (Count)
system.cpu.numInsts                         103036851                       # Number of executed instructions (Count)
system.cpu.numLoadInsts                      10641458                       # Number of load instructions executed (Count)
system.cpu.numSquashedInsts                   1027012                       # Number of squashed instructions skipped in execute (Count)
system.cpu.numSwp                                   0                       # Number of swp insts executed (Count)
system.cpu.numNop                                   0                       # Number of nop insts executed (Count)
system.cpu.numRefs                           13632482                       # Number of memory reference insts executed (Count)
system.cpu.numBranches                        8438798                       # Number of branches executed (Count)
system.cpu.numStoreInsts                      2991024                       # Number of stores executed (Count)
system.cpu.numRate                           3.150124                       # Inst execution rate ((Count/Cycle))
system.cpu.timesIdled                            2292                       # Number of times that the entire CPU went into an idle state and unscheduled itself (Count)
system.cpu.idleCycles                          190106                       # Total number of cycles that the CPU has spent unscheduled due to idling (Cycle)
system.cpu.committedInsts                    50000003                       # Number of Instructions Simulated (Count)
system.cpu.committedOps                      83044348                       # Number of Ops (including micro ops) Simulated (Count)
system.cpu.cpi                               0.654177                       # CPI: Cycles Per Instruction ((Cycle/Count))
system.cpu.totalCpi                          0.654177                       # CPI: Total CPI of All Threads ((Cycle/Count))
system.cpu.ipc                               1.528639                       # IPC: Instructions Per Cycle ((Count/Cycle))
system.cpu.totalIpc                          1.528639                       # IPC: Total IPC of All Threads ((Count/Cycle))
system.cpu.intRegfileReads                  133559262                       # Number of integer regfile reads (Count)
system.cpu.intRegfileWrites                  77118961                       # Number of integer regfile writes (Count)
system.cpu.fpRegfileReads                    19308568                       # Number of floating regfile reads (Count)
system.cpu.fpRegfileWrites                   11135557                       # Number of floating regfile writes (Count)
system.cpu.ccRegfileReads                    62616420                       # number of cc regfile reads (Count)
system.cpu.ccRegfileWrites                   54941890                       # number of cc regfile writes (Count)
system.cpu.miscRegfileReads                  34006828                       # number of misc regfile reads (Count)
system.cpu.miscRegfileWrites                      684                       # number of misc regfile writes (Count)
system.cpu.MemDepUnit__0.insertedLoads       10847995                       # Number of loads inserted to the mem dependence unit. (Count)
system.cpu.MemDepUnit__0.insertedStores       4182424                       # Number of stores inserted to the mem dependence unit. (Count)
system.cpu.MemDepUnit__0.conflictingLoads           28                       # Number of conflicting loads. (Count)
system.cpu.MemDepUnit__0.conflictingStores           37                       # Number of conflicting stores. (Count)
system.cpu.MemDepUnit__1.insertedLoads              0                       # Number of loads inserted to the mem dependence unit. (Count)
system.cpu.MemDepUnit__1.insertedStores             0                       # Number of stores inserted to the mem dependence unit. (Count)
system.cpu.MemDepUnit__1.conflictingLoads            0                       # Number of conflicting loads. (Count)
system.cpu.MemDepUnit__1.conflictingStores            0                       # Number of conflicting stores. (Count)
system.cpu.MemDepUnit__2.insertedLoads              0                       # Number of loads inserted to the mem dependence unit. (Count)
system.cpu.MemDepUnit__2.insertedStores             0                       # Number of stores inserted to the mem dependence unit. (Count)
system.cpu.MemDepUnit__2.conflictingLoads            0                       # Number of conflicting loads. (Count)
system.cpu.MemDepUnit__2.conflictingStores            0                       # Number of conflicting stores. (Count)
system.cpu.MemDepUnit__3.insertedLoads              0                       # Number of loads inserted to the mem dependence unit. (Count)
system.cpu.MemDepUnit__3.insertedStores             0                       # Number of stores inserted to the mem dependence unit. (Count)
system.cpu.MemDepUnit__3.conflictingLoads            0                       # Number of conflicting loads. (Count)
system.cpu.MemDepUnit__3.conflictingStores            0                       # Number of conflicting stores. (Count)
system.cpu.branchPred.lookups                10846485                       # Number of BP lookups (Count)
system.cpu.branchPred.condPredicted           9140422                       # Number of conditional branches predicted (Count)
system.cpu.branchPred.condIncorrect            442907                       # Number of conditional branches incorrect (Count)
system.cpu.branchPred.BTBLookups              5614876                       # Number of BTB lookups (Count)
system.cpu.branchPred.BTBHits                 5610976                       # Number of BTB hits (Count)
system.cpu.branchPred.BTBHitRatio            0.999305                       # BTB Hit Ratio (Ratio)
system.cpu.branchPred.RASUsed                  804379                       # Number of times the RAS was used to get a target. (Count)
system.cpu.branchPred.RASIncorrect                 11                       # Number of incorrect RAS predictions. (Count)
system.cpu.branchPred.indirectLookups           12670                       # Number of indirect predictor lookups. (Count)
system.cpu.branchPred.indirectHits               5546                       # Number of indirect target hits. (Count)
system.cpu.branchPred.indirectMisses             7124                       # Number of indirect misses. (Count)
system.cpu.branchPred.indirectMispredicted         1467                       # Number of mispredicted indirect branches. (Count)
system.cpu.commit.commitSquashedInsts        33974248                       # The number of squashed insts skipped by commit (Count)
system.cpu.commit.commitNonSpecStalls             696                       # The number of times commit has been forced to stall to communicate backwards (Count)
system.cpu.commit.branchMispredicts            442473                       # The number of times a branch was mispredicted (Count)
system.cpu.commit.numCommittedDist::samples     28045848                       # Number of insts commited each cycle (Count)
system.cpu.commit.numCommittedDist::mean     2.961021                       # Number of insts commited each cycle (Count)
system.cpu.commit.numCommittedDist::stdev     2.779370                       # Number of insts commited each cycle (Count)
system.cpu.commit.numCommittedDist::underflows            0      0.00%      0.00% # Number of insts commited each cycle (Count)
system.cpu.commit.numCommittedDist::0         4552425     16.23%     16.23% # Number of insts commited each cycle (Count)
system.cpu.commit.numCommittedDist::1         8070180     28.77%     45.01% # Number of insts commited each cycle (Count)
system.cpu.commit.numCommittedDist::2         2836251     10.11%     55.12% # Number of insts commited each cycle (Count)
system.cpu.commit.numCommittedDist::3         3659427     13.05%     68.17% # Number of insts commited each cycle (Count)
system.cpu.commit.numCommittedDist::4         2499629      8.91%     77.08% # Number of insts commited each cycle (Count)
system.cpu.commit.numCommittedDist::5          872312      3.11%     80.19% # Number of insts commited each cycle (Count)
system.cpu.commit.numCommittedDist::6           30410      0.11%     80.30% # Number of insts commited each cycle (Count)
system.cpu.commit.numCommittedDist::7          420863      1.50%     81.80% # Number of insts commited each cycle (Count)
system.cpu.commit.numCommittedDist::8         5104351     18.20%    100.00% # Number of insts commited each cycle (Count)
system.cpu.commit.numCommittedDist::overflows            0      0.00%    100.00% # Number of insts commited each cycle (Count)
system.cpu.commit.numCommittedDist::min_value            0                       # Number of insts commited each cycle (Count)
system.cpu.commit.numCommittedDist::max_value            8                       # Number of insts commited each cycle (Count)
system.cpu.commit.numCommittedDist::total     28045848                       # Number of insts commited each cycle (Count)
system.cpu.commit.instsCommitted             50000003                       # Number of instructions committed (Count)
system.cpu.commit.opsCommitted               83044348                       # Number of ops (including micro ops) committed (Count)
system.cpu.commit.memRefs                    10612850                       # Number of memory references committed (Count)
system.cpu.commit.loads                       8098002                       # Number of loads committed (Count)
system.cpu.commit.amos                              0                       # Number of atomic instructions committed (Count)
system.cpu.commit.membars                           8                       # Number of memory barriers committed (Count)
system.cpu.commit.branches                    7153302                       # Number of branches committed (Count)
system.cpu.commit.vectorInstructions                0                       # Number of committed Vector instructions. (Count)
system.cpu.commit.floating                   13351959                       # Number of committed floating point instructions. (Count)
system.cpu.commit.integer                    72651629                       # Number of committed integer instructions. (Count)
system.cpu.commit.functionCalls                748764                       # Number of function calls committed. (Count)
system.cpu.commit.committedInstType_0::No_OpClass       754022      0.91%      0.91% # Class of committed instruction (Count)
system.cpu.commit.committedInstType_0::IntAlu     61268247     73.78%     74.69% # Class of committed instruction (Count)
system.cpu.commit.committedInstType_0::IntMult         1283      0.00%     74.69% # Class of committed instruction (Count)
system.cpu.commit.committedInstType_0::IntDiv        38076      0.05%     74.73% # Class of committed instruction (Count)
system.cpu.commit.committedInstType_0::FloatAdd      1478942      1.78%     76.51% # Class of committed instruction (Count)
system.cpu.commit.committedInstType_0::FloatCmp            0      0.00%     76.51% # Class of committed instruction (Count)
system.cpu.commit.committedInstType_0::FloatCvt         1216      0.00%     76.52% # Class of committed instruction (Count)
system.cpu.commit.committedInstType_0::FloatMult            0      0.00%     76.52% # Class of committed instruction (Count)
system.cpu.commit.committedInstType_0::FloatMultAcc            0      0.00%     76.52% # Class of committed instruction (Count)
system.cpu.commit.committedInstType_0::FloatDiv            0      0.00%     76.52% # Class of committed instruction (Count)
system.cpu.commit.committedInstType_0::FloatMisc            0      0.00%     76.52% # Class of committed instruction (Count)
system.cpu.commit.committedInstType_0::FloatSqrt            0      0.00%     76.52% # Class of committed instruction (Count)
system.cpu.commit.committedInstType_0::SimdAdd         7318      0.01%     76.52% # Class of committed instruction (Count)
system.cpu.commit.committedInstType_0::SimdAddAcc            0      0.00%     76.52% # Class of committed instruction (Count)
system.cpu.commit.committedInstType_0::SimdAlu      2959983      3.56%     80.09% # Class of committed instruction (Count)
system.cpu.commit.committedInstType_0::SimdCmp            6      0.00%     80.09% # Class of committed instruction (Count)
system.cpu.commit.committedInstType_0::SimdCvt        15384      0.02%     80.11% # Class of committed instruction (Count)
system.cpu.commit.committedInstType_0::SimdMisc       750032      0.90%     81.01% # Class of committed instruction (Count)
system.cpu.commit.committedInstType_0::SimdMult            0      0.00%     81.01% # Class of committed instruction (Count)
system.cpu.commit.committedInstType_0::SimdMultAcc            0      0.00%     81.01% # Class of committed instruction (Count)
system.cpu.commit.committedInstType_0::SimdShift         1161      0.00%     81.01% # Class of committed instruction (Count)
system.cpu.commit.committedInstType_0::SimdShiftAcc            0      0.00%     81.01% # Class of committed instruction (Count)
system.cpu.commit.committedInstType_0::SimdDiv            0      0.00%     81.01% # Class of committed instruction (Count)
system.cpu.commit.committedInstType_0::SimdSqrt            0      0.00%     81.01% # Class of committed instruction (Count)
system.cpu.commit.committedInstType_0::SimdFloatAdd      1473094      1.77%     82.79% # Class of committed instruction (Count)
system.cpu.commit.committedInstType_0::SimdFloatAlu            0      0.00%     82.79% # Class of committed instruction (Count)
system.cpu.commit.committedInstType_0::SimdFloatCmp            0      0.00%     82.79% # Class of committed instruction (Count)
system.cpu.commit.committedInstType_0::SimdFloatCvt      2946187      3.55%     86.33% # Class of committed instruction (Count)
system.cpu.commit.committedInstType_0::SimdFloatDiv            0      0.00%     86.33% # Class of committed instruction (Count)
system.cpu.commit.committedInstType_0::SimdFloatMisc            0      0.00%     86.33% # Class of committed instruction (Count)
system.cpu.commit.committedInstType_0::SimdFloatMult       736547      0.89%     87.22% # Class of committed instruction (Count)
system.cpu.commit.committedInstType_0::SimdFloatMultAcc            0      0.00%     87.22% # Class of committed instruction (Count)
system.cpu.commit.committedInstType_0::SimdFloatSqrt            0      0.00%     87.22% # Class of committed instruction (Count)
system.cpu.commit.committedInstType_0::SimdReduceAdd            0      0.00%     87.22% # Class of committed instruction (Count)
system.cpu.commit.committedInstType_0::SimdReduceAlu            0      0.00%     87.22% # Class of committed instruction (Count)
system.cpu.commit.committedInstType_0::SimdReduceCmp            0      0.00%     87.22% # Class of committed instruction (Count)
system.cpu.commit.committedInstType_0::SimdFloatReduceAdd            0      0.00%     87.22% # Class of committed instruction (Count)
system.cpu.commit.committedInstType_0::SimdFloatReduceCmp            0      0.00%     87.22% # Class of committed instruction (Count)
system.cpu.commit.committedInstType_0::SimdAes            0      0.00%     87.22% # Class of committed instruction (Count)
system.cpu.commit.committedInstType_0::SimdAesMix            0      0.00%     87.22% # Class of committed instruction (Count)
system.cpu.commit.committedInstType_0::SimdSha1Hash            0      0.00%     87.22% # Class of committed instruction (Count)
system.cpu.commit.committedInstType_0::SimdSha1Hash2            0      0.00%     87.22% # Class of committed instruction (Count)
system.cpu.commit.committedInstType_0::SimdSha256Hash            0      0.00%     87.22% # Class of committed instruction (Count)
system.cpu.commit.committedInstType_0::SimdSha256Hash2            0      0.00%     87.22% # Class of committed instruction (Count)
system.cpu.commit.committedInstType_0::SimdShaSigma2            0      0.00%     87.22% # Class of committed instruction (Count)
system.cpu.commit.committedInstType_0::SimdShaSigma3            0      0.00%     87.22% # Class of committed instruction (Count)
system.cpu.commit.committedInstType_0::SimdPredAlu            0      0.00%     87.22% # Class of committed instruction (Count)
system.cpu.commit.committedInstType_0::MemRead      5133158      6.18%     93.40% # Class of committed instruction (Count)
system.cpu.commit.committedInstType_0::MemWrite      2500918      3.01%     96.41% # Class of committed instruction (Count)
system.cpu.commit.committedInstType_0::FloatMemRead      2964844      3.57%     99.98% # Class of committed instruction (Count)
system.cpu.commit.committedInstType_0::FloatMemWrite        13930      0.02%    100.00% # Class of committed instruction (Count)
system.cpu.commit.committedInstType_0::IprAccess            0      0.00%    100.00% # Class of committed instruction (Count)
system.cpu.commit.committedInstType_0::InstPrefetch            0      0.00%    100.00% # Class of committed instruction (Count)
system.cpu.commit.committedInstType_0::total     83044348                       # Class of committed instruction (Count)
system.cpu.commit.commitEligibleSamples       5104351                       # number cycles where commit BW limit reached (Cycle)
system.cpu.dcache.demandHits::cpu.data       12222380                       # number of demand (read+write) hits (Count)
system.cpu.dcache.demandHits::total          12222380                       # number of demand (read+write) hits (Count)
system.cpu.dcache.overallHits::cpu.data      12222380                       # number of overall hits (Count)
system.cpu.dcache.overallHits::total         12222380                       # number of overall hits (Count)
system.cpu.dcache.demandMisses::cpu.data        77453                       # number of demand (read+write) misses (Count)
system.cpu.dcache.demandMisses::total           77453                       # number of demand (read+write) misses (Count)
system.cpu.dcache.overallMisses::cpu.data        77453                       # number of overall misses (Count)
system.cpu.dcache.overallMisses::total          77453                       # number of overall misses (Count)
system.cpu.dcache.demandMissLatency::cpu.data   4585378992                       # number of demand (read+write) miss ticks (Tick)
system.cpu.dcache.demandMissLatency::total   4585378992                       # number of demand (read+write) miss ticks (Tick)
system.cpu.dcache.overallMissLatency::cpu.data   4585378992                       # number of overall miss ticks (Tick)
system.cpu.dcache.overallMissLatency::total   4585378992                       # number of overall miss ticks (Tick)
system.cpu.dcache.demandAccesses::cpu.data     12299833                       # number of demand (read+write) accesses (Count)
system.cpu.dcache.demandAccesses::total      12299833                       # number of demand (read+write) accesses (Count)
system.cpu.dcache.overallAccesses::cpu.data     12299833                       # number of overall (read+write) accesses (Count)
system.cpu.dcache.overallAccesses::total     12299833                       # number of overall (read+write) accesses (Count)
system.cpu.dcache.demandMissRate::cpu.data     0.006297                       # miss rate for demand accesses (Ratio)
system.cpu.dcache.demandMissRate::total      0.006297                       # miss rate for demand accesses (Ratio)
system.cpu.dcache.overallMissRate::cpu.data     0.006297                       # miss rate for overall accesses (Ratio)
system.cpu.dcache.overallMissRate::total     0.006297                       # miss rate for overall accesses (Ratio)
system.cpu.dcache.demandAvgMissLatency::cpu.data 59202.083741                       # average overall miss latency ((Cycle/Count))
system.cpu.dcache.demandAvgMissLatency::total 59202.083741                       # average overall miss latency ((Cycle/Count))
system.cpu.dcache.overallAvgMissLatency::cpu.data 59202.083741                       # average overall miss latency ((Cycle/Count))
system.cpu.dcache.overallAvgMissLatency::total 59202.083741                       # average overall miss latency ((Cycle/Count))
system.cpu.dcache.blockedCycles::no_mshrs        38207                       # number of cycles access was blocked (Cycle)
system.cpu.dcache.blockedCycles::no_targets          407                       # number of cycles access was blocked (Cycle)
system.cpu.dcache.blockedCauses::no_mshrs          958                       # number of times access was blocked (Count)
system.cpu.dcache.blockedCauses::no_targets            9                       # number of times access was blocked (Count)
system.cpu.dcache.avgBlocked::no_mshrs      39.882046                       # average number of cycles each access was blocked ((Cycle/Count))
system.cpu.dcache.avgBlocked::no_targets    45.222222                       # average number of cycles each access was blocked ((Cycle/Count))
system.cpu.dcache.writebacks::writebacks        12463                       # number of writebacks (Count)
system.cpu.dcache.writebacks::total             12463                       # number of writebacks (Count)
system.cpu.dcache.demandMshrHits::cpu.data        46719                       # number of demand (read+write) MSHR hits (Count)
system.cpu.dcache.demandMshrHits::total         46719                       # number of demand (read+write) MSHR hits (Count)
system.cpu.dcache.overallMshrHits::cpu.data        46719                       # number of overall MSHR hits (Count)
system.cpu.dcache.overallMshrHits::total        46719                       # number of overall MSHR hits (Count)
system.cpu.dcache.demandMshrMisses::cpu.data        30734                       # number of demand (read+write) MSHR misses (Count)
system.cpu.dcache.demandMshrMisses::total        30734                       # number of demand (read+write) MSHR misses (Count)
system.cpu.dcache.overallMshrMisses::cpu.data        30734                       # number of overall MSHR misses (Count)
system.cpu.dcache.overallMshrMisses::total        30734                       # number of overall MSHR misses (Count)
system.cpu.dcache.demandMshrMissLatency::cpu.data   1787202492                       # number of demand (read+write) MSHR miss ticks (Tick)
system.cpu.dcache.demandMshrMissLatency::total   1787202492                       # number of demand (read+write) MSHR miss ticks (Tick)
system.cpu.dcache.overallMshrMissLatency::cpu.data   1787202492                       # number of overall MSHR miss ticks (Tick)
system.cpu.dcache.overallMshrMissLatency::total   1787202492                       # number of overall MSHR miss ticks (Tick)
system.cpu.dcache.demandMshrMissRate::cpu.data     0.002499                       # mshr miss ratio for demand accesses (Ratio)
system.cpu.dcache.demandMshrMissRate::total     0.002499                       # mshr miss ratio for demand accesses (Ratio)
system.cpu.dcache.overallMshrMissRate::cpu.data     0.002499                       # mshr miss ratio for overall accesses (Ratio)
system.cpu.dcache.overallMshrMissRate::total     0.002499                       # mshr miss ratio for overall accesses (Ratio)
system.cpu.dcache.demandAvgMshrMissLatency::cpu.data 58150.663500                       # average overall mshr miss latency ((Cycle/Count))
system.cpu.dcache.demandAvgMshrMissLatency::total 58150.663500                       # average overall mshr miss latency ((Cycle/Count))
system.cpu.dcache.overallAvgMshrMissLatency::cpu.data 58150.663500                       # average overall mshr miss latency ((Cycle/Count))
system.cpu.dcache.overallAvgMshrMissLatency::total 58150.663500                       # average overall mshr miss latency ((Cycle/Count))
system.cpu.dcache.replacements                  30477                       # number of replacements (Count)
system.cpu.dcache.ReadReq.hits::cpu.data      9716769                       # number of ReadReq hits (Count)
system.cpu.dcache.ReadReq.hits::total         9716769                       # number of ReadReq hits (Count)
system.cpu.dcache.ReadReq.misses::cpu.data        68203                       # number of ReadReq misses (Count)
system.cpu.dcache.ReadReq.misses::total         68203                       # number of ReadReq misses (Count)
system.cpu.dcache.ReadReq.missLatency::cpu.data   3900863000                       # number of ReadReq miss ticks (Tick)
system.cpu.dcache.ReadReq.missLatency::total   3900863000                       # number of ReadReq miss ticks (Tick)
system.cpu.dcache.ReadReq.accesses::cpu.data      9784972                       # number of ReadReq accesses(hits+misses) (Count)
system.cpu.dcache.ReadReq.accesses::total      9784972                       # number of ReadReq accesses(hits+misses) (Count)
system.cpu.dcache.ReadReq.missRate::cpu.data     0.006970                       # miss rate for ReadReq accesses (Ratio)
system.cpu.dcache.ReadReq.missRate::total     0.006970                       # miss rate for ReadReq accesses (Ratio)
system.cpu.dcache.ReadReq.avgMissLatency::cpu.data 57194.888788                       # average ReadReq miss latency ((Tick/Count))
system.cpu.dcache.ReadReq.avgMissLatency::total 57194.888788                       # average ReadReq miss latency ((Tick/Count))
system.cpu.dcache.ReadReq.mshrHits::cpu.data        46706                       # number of ReadReq MSHR hits (Count)
system.cpu.dcache.ReadReq.mshrHits::total        46706                       # number of ReadReq MSHR hits (Count)
system.cpu.dcache.ReadReq.mshrMisses::cpu.data        21497                       # number of ReadReq MSHR misses (Count)
system.cpu.dcache.ReadReq.mshrMisses::total        21497                       # number of ReadReq MSHR misses (Count)
system.cpu.dcache.ReadReq.mshrMissLatency::cpu.data   1112543500                       # number of ReadReq MSHR miss ticks (Tick)
system.cpu.dcache.ReadReq.mshrMissLatency::total   1112543500                       # number of ReadReq MSHR miss ticks (Tick)
system.cpu.dcache.ReadReq.mshrMissRate::cpu.data     0.002197                       # mshr miss rate for ReadReq accesses (Ratio)
system.cpu.dcache.ReadReq.mshrMissRate::total     0.002197                       # mshr miss rate for ReadReq accesses (Ratio)
system.cpu.dcache.ReadReq.avgMshrMissLatency::cpu.data 51753.430711                       # average ReadReq mshr miss latency ((Tick/Count))
system.cpu.dcache.ReadReq.avgMshrMissLatency::total 51753.430711                       # average ReadReq mshr miss latency ((Tick/Count))
system.cpu.dcache.WriteReq.hits::cpu.data      2505611                       # number of WriteReq hits (Count)
system.cpu.dcache.WriteReq.hits::total        2505611                       # number of WriteReq hits (Count)
system.cpu.dcache.WriteReq.misses::cpu.data         9250                       # number of WriteReq misses (Count)
system.cpu.dcache.WriteReq.misses::total         9250                       # number of WriteReq misses (Count)
system.cpu.dcache.WriteReq.missLatency::cpu.data    684515992                       # number of WriteReq miss ticks (Tick)
system.cpu.dcache.WriteReq.missLatency::total    684515992                       # number of WriteReq miss ticks (Tick)
system.cpu.dcache.WriteReq.accesses::cpu.data      2514861                       # number of WriteReq accesses(hits+misses) (Count)
system.cpu.dcache.WriteReq.accesses::total      2514861                       # number of WriteReq accesses(hits+misses) (Count)
system.cpu.dcache.WriteReq.missRate::cpu.data     0.003678                       # miss rate for WriteReq accesses (Ratio)
system.cpu.dcache.WriteReq.missRate::total     0.003678                       # miss rate for WriteReq accesses (Ratio)
system.cpu.dcache.WriteReq.avgMissLatency::cpu.data 74001.728865                       # average WriteReq miss latency ((Tick/Count))
system.cpu.dcache.WriteReq.avgMissLatency::total 74001.728865                       # average WriteReq miss latency ((Tick/Count))
system.cpu.dcache.WriteReq.mshrHits::cpu.data           13                       # number of WriteReq MSHR hits (Count)
system.cpu.dcache.WriteReq.mshrHits::total           13                       # number of WriteReq MSHR hits (Count)
system.cpu.dcache.WriteReq.mshrMisses::cpu.data         9237                       # number of WriteReq MSHR misses (Count)
system.cpu.dcache.WriteReq.mshrMisses::total         9237                       # number of WriteReq MSHR misses (Count)
system.cpu.dcache.WriteReq.mshrMissLatency::cpu.data    674658992                       # number of WriteReq MSHR miss ticks (Tick)
system.cpu.dcache.WriteReq.mshrMissLatency::total    674658992                       # number of WriteReq MSHR miss ticks (Tick)
system.cpu.dcache.WriteReq.mshrMissRate::cpu.data     0.003673                       # mshr miss rate for WriteReq accesses (Ratio)
system.cpu.dcache.WriteReq.mshrMissRate::total     0.003673                       # mshr miss rate for WriteReq accesses (Ratio)
system.cpu.dcache.WriteReq.avgMshrMissLatency::cpu.data 73038.756306                       # average WriteReq mshr miss latency ((Tick/Count))
system.cpu.dcache.WriteReq.avgMshrMissLatency::total 73038.756306                       # average WriteReq mshr miss latency ((Tick/Count))
system.cpu.dcache.power_state.pwrStateResidencyTicks::UNDEFINED  16354413000                       # Cumulative time (in ticks) in various power states (Tick)
system.cpu.dcache.tags.tagsInUse           255.747986                       # Average ticks per tags in use ((Tick/Count))
system.cpu.dcache.tags.totalRefs             12253113                       # Total number of references to valid blocks. (Count)
system.cpu.dcache.tags.sampledRefs              30733                       # Sample count of references to valid blocks. (Count)
system.cpu.dcache.tags.avgRefs             398.695637                       # Average number of references to valid blocks. ((Count/Count))
system.cpu.dcache.tags.warmupTick              179500                       # The tick when the warmup percentage was hit. (Tick)
system.cpu.dcache.tags.occupancies::cpu.data   255.747986                       # Average occupied blocks per tick, per requestor ((Count/Tick))
system.cpu.dcache.tags.avgOccs::cpu.data     0.999016                       # Average percentage of cache occupancy ((Ratio/Tick))
system.cpu.dcache.tags.avgOccs::total        0.999016                       # Average percentage of cache occupancy ((Ratio/Tick))
system.cpu.dcache.tags.occupanciesTaskId::1024          256                       # Occupied blocks per task id (Count)
system.cpu.dcache.tags.ageTaskId_1024::0            3                       # Occupied blocks per task id, per block age (Count)
system.cpu.dcache.tags.ageTaskId_1024::1           38                       # Occupied blocks per task id, per block age (Count)
system.cpu.dcache.tags.ageTaskId_1024::2          152                       # Occupied blocks per task id, per block age (Count)
system.cpu.dcache.tags.ageTaskId_1024::3            1                       # Occupied blocks per task id, per block age (Count)
system.cpu.dcache.tags.ageTaskId_1024::4           62                       # Occupied blocks per task id, per block age (Count)
system.cpu.dcache.tags.ratioOccsTaskId::1024            1                       # Ratio of occupied blocks and all blocks, per task id (Ratio)
system.cpu.dcache.tags.tagAccesses           24630399                       # Number of tag accesses (Count)
system.cpu.dcache.tags.dataAccesses          24630399                       # Number of data accesses (Count)
system.cpu.dcache.tags.power_state.pwrStateResidencyTicks::UNDEFINED  16354413000                       # Cumulative time (in ticks) in various power states (Tick)
system.cpu.decode.idleCycles                  7556551                       # Number of cycles decode is idle (Cycle)
system.cpu.decode.blockedCycles               5978468                       # Number of cycles decode is blocked (Cycle)
system.cpu.decode.runCycles                  17507192                       # Number of cycles decode is running (Cycle)
system.cpu.decode.unblockCycles               1028832                       # Number of cycles decode is unblocking (Cycle)
system.cpu.decode.squashCycles                 447678                       # Number of cycles decode is squashing (Cycle)
system.cpu.decode.branchResolved              5289865                       # Number of times decode resolved a branch (Count)
system.cpu.decode.branchMispred                  1329                       # Number of times decode detected a branch misprediction (Count)
system.cpu.decode.decodedInsts              124326567                       # Number of instructions handled by decode (Count)
system.cpu.decode.squashedInsts                  6191                       # Number of squashed instructions handled by decode (Count)
system.cpu.dtb_walker_cache.blockedCycles::no_mshrs            0                       # number of cycles access was blocked (Cycle)
system.cpu.dtb_walker_cache.blockedCycles::no_targets            0                       # number of cycles access was blocked (Cycle)
system.cpu.dtb_walker_cache.blockedCauses::no_mshrs            0                       # number of times access was blocked (Count)
system.cpu.dtb_walker_cache.blockedCauses::no_targets            0                       # number of times access was blocked (Count)
system.cpu.dtb_walker_cache.avgBlocked::no_mshrs          nan                       # average number of cycles each access was blocked ((Cycle/Count))
system.cpu.dtb_walker_cache.avgBlocked::no_targets          nan                       # average number of cycles each access was blocked ((Cycle/Count))
system.cpu.dtb_walker_cache.replacements            0                       # number of replacements (Count)
system.cpu.dtb_walker_cache.power_state.pwrStateResidencyTicks::UNDEFINED  16354413000                       # Cumulative time (in ticks) in various power states (Tick)
system.cpu.dtb_walker_cache.tags.tagsInUse            0                       # Average ticks per tags in use ((Tick/Count))
system.cpu.dtb_walker_cache.tags.totalRefs            0                       # Total number of references to valid blocks. (Count)
system.cpu.dtb_walker_cache.tags.sampledRefs            0                       # Sample count of references to valid blocks. (Count)
system.cpu.dtb_walker_cache.tags.avgRefs          nan                       # Average number of references to valid blocks. ((Count/Count))
system.cpu.dtb_walker_cache.tags.warmupTick            0                       # The tick when the warmup percentage was hit. (Tick)
system.cpu.dtb_walker_cache.tags.tagAccesses            0                       # Number of tag accesses (Count)
system.cpu.dtb_walker_cache.tags.dataAccesses            0                       # Number of data accesses (Count)
system.cpu.dtb_walker_cache.tags.power_state.pwrStateResidencyTicks::UNDEFINED  16354413000                       # Cumulative time (in ticks) in various power states (Tick)
system.cpu.fetch.icacheStallCycles            7730316                       # Number of cycles fetch is stalled on an Icache miss (Cycle)
system.cpu.fetch.insts                       78361796                       # Number of instructions fetch has processed (Count)
system.cpu.fetch.branches                    10846485                       # Number of branches that fetch encountered (Count)
system.cpu.fetch.predictedBranches            6420901                       # Number of branches that fetch has predicted taken (Count)
system.cpu.fetch.cycles                      24332301                       # Number of cycles fetch has run and was not squashing or blocked (Cycle)
system.cpu.fetch.squashCycles                  897954                       # Number of cycles fetch has spent squashing (Cycle)
system.cpu.fetch.miscStallCycles                  915                       # Number of cycles fetch has spent waiting on interrupts, or bad addresses, or out of MSHRs (Cycle)
system.cpu.fetch.pendingTrapStallCycles          6153                       # Number of stall cycles due to pending traps (Cycle)
system.cpu.fetch.pendingQuiesceStallCycles           26                       # Number of stall cycles due to pending quiesce instructions (Cycle)
system.cpu.fetch.icacheWaitRetryStallCycles           33                       # Number of stall cycles due to full MSHR (Cycle)
system.cpu.fetch.cacheLines                   7523910                       # Number of cache lines fetched (Count)
system.cpu.fetch.icacheSquashes                 79623                       # Number of outstanding Icache misses that were squashed (Count)
system.cpu.fetch.nisnDist::samples           32518721                       # Number of instructions fetched each cycle (Total) (Count)
system.cpu.fetch.nisnDist::mean              3.930471                       # Number of instructions fetched each cycle (Total) (Count)
system.cpu.fetch.nisnDist::stdev             3.520869                       # Number of instructions fetched each cycle (Total) (Count)
system.cpu.fetch.nisnDist::underflows               0      0.00%      0.00% # Number of instructions fetched each cycle (Total) (Count)
system.cpu.fetch.nisnDist::0                 11830539     36.38%     36.38% # Number of instructions fetched each cycle (Total) (Count)
system.cpu.fetch.nisnDist::1                  1579833      4.86%     41.24% # Number of instructions fetched each cycle (Total) (Count)
system.cpu.fetch.nisnDist::2                   917136      2.82%     44.06% # Number of instructions fetched each cycle (Total) (Count)
system.cpu.fetch.nisnDist::3                   901558      2.77%     46.83% # Number of instructions fetched each cycle (Total) (Count)
system.cpu.fetch.nisnDist::4                  1612624      4.96%     51.79% # Number of instructions fetched each cycle (Total) (Count)
system.cpu.fetch.nisnDist::5                  2258663      6.95%     58.74% # Number of instructions fetched each cycle (Total) (Count)
system.cpu.fetch.nisnDist::6                  1007829      3.10%     61.84% # Number of instructions fetched each cycle (Total) (Count)
system.cpu.fetch.nisnDist::7                  1379973      4.24%     66.08% # Number of instructions fetched each cycle (Total) (Count)
system.cpu.fetch.nisnDist::8                 11030566     33.92%    100.00% # Number of instructions fetched each cycle (Total) (Count)
system.cpu.fetch.nisnDist::overflows                0      0.00%    100.00% # Number of instructions fetched each cycle (Total) (Count)
system.cpu.fetch.nisnDist::min_value                0                       # Number of instructions fetched each cycle (Total) (Count)
system.cpu.fetch.nisnDist::max_value                8                       # Number of instructions fetched each cycle (Total) (Count)
system.cpu.fetch.nisnDist::total             32518721                       # Number of instructions fetched each cycle (Total) (Count)
system.cpu.fetch.branchRate                  0.331607                       # Number of branch fetches per cycle (Ratio)
system.cpu.fetch.rate                        2.395738                       # Number of inst fetches per cycle ((Count/Cycle))
system.cpu.icache.demandHits::cpu.inst        7518691                       # number of demand (read+write) hits (Count)
system.cpu.icache.demandHits::total           7518691                       # number of demand (read+write) hits (Count)
system.cpu.icache.overallHits::cpu.inst       7518691                       # number of overall hits (Count)
system.cpu.icache.overallHits::total          7518691                       # number of overall hits (Count)
system.cpu.icache.demandMisses::cpu.inst         5219                       # number of demand (read+write) misses (Count)
system.cpu.icache.demandMisses::total            5219                       # number of demand (read+write) misses (Count)
system.cpu.icache.overallMisses::cpu.inst         5219                       # number of overall misses (Count)
system.cpu.icache.overallMisses::total           5219                       # number of overall misses (Count)
system.cpu.icache.demandMissLatency::cpu.inst    269295000                       # number of demand (read+write) miss ticks (Tick)
system.cpu.icache.demandMissLatency::total    269295000                       # number of demand (read+write) miss ticks (Tick)
system.cpu.icache.overallMissLatency::cpu.inst    269295000                       # number of overall miss ticks (Tick)
system.cpu.icache.overallMissLatency::total    269295000                       # number of overall miss ticks (Tick)
system.cpu.icache.demandAccesses::cpu.inst      7523910                       # number of demand (read+write) accesses (Count)
system.cpu.icache.demandAccesses::total       7523910                       # number of demand (read+write) accesses (Count)
system.cpu.icache.overallAccesses::cpu.inst      7523910                       # number of overall (read+write) accesses (Count)
system.cpu.icache.overallAccesses::total      7523910                       # number of overall (read+write) accesses (Count)
system.cpu.icache.demandMissRate::cpu.inst     0.000694                       # miss rate for demand accesses (Ratio)
system.cpu.icache.demandMissRate::total      0.000694                       # miss rate for demand accesses (Ratio)
system.cpu.icache.overallMissRate::cpu.inst     0.000694                       # miss rate for overall accesses (Ratio)
system.cpu.icache.overallMissRate::total     0.000694                       # miss rate for overall accesses (Ratio)
system.cpu.icache.demandAvgMissLatency::cpu.inst 51598.965319                       # average overall miss latency ((Cycle/Count))
system.cpu.icache.demandAvgMissLatency::total 51598.965319                       # average overall miss latency ((Cycle/Count))
system.cpu.icache.overallAvgMissLatency::cpu.inst 51598.965319                       # average overall miss latency ((Cycle/Count))
system.cpu.icache.overallAvgMissLatency::total 51598.965319                       # average overall miss latency ((Cycle/Count))
system.cpu.icache.blockedCycles::no_mshrs          859                       # number of cycles access was blocked (Cycle)
system.cpu.icache.blockedCycles::no_targets            0                       # number of cycles access was blocked (Cycle)
system.cpu.icache.blockedCauses::no_mshrs           17                       # number of times access was blocked (Count)
system.cpu.icache.blockedCauses::no_targets            0                       # number of times access was blocked (Count)
system.cpu.icache.avgBlocked::no_mshrs      50.529412                       # average number of cycles each access was blocked ((Cycle/Count))
system.cpu.icache.avgBlocked::no_targets          nan                       # average number of cycles each access was blocked ((Cycle/Count))
system.cpu.icache.writebacks::writebacks         4051                       # number of writebacks (Count)
system.cpu.icache.writebacks::total              4051                       # number of writebacks (Count)
system.cpu.icache.demandMshrHits::cpu.inst          912                       # number of demand (read+write) MSHR hits (Count)
system.cpu.icache.demandMshrHits::total           912                       # number of demand (read+write) MSHR hits (Count)
system.cpu.icache.overallMshrHits::cpu.inst          912                       # number of overall MSHR hits (Count)
system.cpu.icache.overallMshrHits::total          912                       # number of overall MSHR hits (Count)
system.cpu.icache.demandMshrMisses::cpu.inst         4307                       # number of demand (read+write) MSHR misses (Count)
system.cpu.icache.demandMshrMisses::total         4307                       # number of demand (read+write) MSHR misses (Count)
system.cpu.icache.overallMshrMisses::cpu.inst         4307                       # number of overall MSHR misses (Count)
system.cpu.icache.overallMshrMisses::total         4307                       # number of overall MSHR misses (Count)
system.cpu.icache.demandMshrMissLatency::cpu.inst    215857000                       # number of demand (read+write) MSHR miss ticks (Tick)
system.cpu.icache.demandMshrMissLatency::total    215857000                       # number of demand (read+write) MSHR miss ticks (Tick)
system.cpu.icache.overallMshrMissLatency::cpu.inst    215857000                       # number of overall MSHR miss ticks (Tick)
system.cpu.icache.overallMshrMissLatency::total    215857000                       # number of overall MSHR miss ticks (Tick)
system.cpu.icache.demandMshrMissRate::cpu.inst     0.000572                       # mshr miss ratio for demand accesses (Ratio)
system.cpu.icache.demandMshrMissRate::total     0.000572                       # mshr miss ratio for demand accesses (Ratio)
system.cpu.icache.overallMshrMissRate::cpu.inst     0.000572                       # mshr miss ratio for overall accesses (Ratio)
system.cpu.icache.overallMshrMissRate::total     0.000572                       # mshr miss ratio for overall accesses (Ratio)
system.cpu.icache.demandAvgMshrMissLatency::cpu.inst 50117.715347                       # average overall mshr miss latency ((Cycle/Count))
system.cpu.icache.demandAvgMshrMissLatency::total 50117.715347                       # average overall mshr miss latency ((Cycle/Count))
system.cpu.icache.overallAvgMshrMissLatency::cpu.inst 50117.715347                       # average overall mshr miss latency ((Cycle/Count))
system.cpu.icache.overallAvgMshrMissLatency::total 50117.715347                       # average overall mshr miss latency ((Cycle/Count))
system.cpu.icache.replacements                   4051                       # number of replacements (Count)
system.cpu.icache.ReadReq.hits::cpu.inst      7518691                       # number of ReadReq hits (Count)
system.cpu.icache.ReadReq.hits::total         7518691                       # number of ReadReq hits (Count)
system.cpu.icache.ReadReq.misses::cpu.inst         5219                       # number of ReadReq misses (Count)
system.cpu.icache.ReadReq.misses::total          5219                       # number of ReadReq misses (Count)
system.cpu.icache.ReadReq.missLatency::cpu.inst    269295000                       # number of ReadReq miss ticks (Tick)
system.cpu.icache.ReadReq.missLatency::total    269295000                       # number of ReadReq miss ticks (Tick)
system.cpu.icache.ReadReq.accesses::cpu.inst      7523910                       # number of ReadReq accesses(hits+misses) (Count)
system.cpu.icache.ReadReq.accesses::total      7523910                       # number of ReadReq accesses(hits+misses) (Count)
system.cpu.icache.ReadReq.missRate::cpu.inst     0.000694                       # miss rate for ReadReq accesses (Ratio)
system.cpu.icache.ReadReq.missRate::total     0.000694                       # miss rate for ReadReq accesses (Ratio)
system.cpu.icache.ReadReq.avgMissLatency::cpu.inst 51598.965319                       # average ReadReq miss latency ((Tick/Count))
system.cpu.icache.ReadReq.avgMissLatency::total 51598.965319                       # average ReadReq miss latency ((Tick/Count))
system.cpu.icache.ReadReq.mshrHits::cpu.inst          912                       # number of ReadReq MSHR hits (Count)
system.cpu.icache.ReadReq.mshrHits::total          912                       # number of ReadReq MSHR hits (Count)
system.cpu.icache.ReadReq.mshrMisses::cpu.inst         4307                       # number of ReadReq MSHR misses (Count)
system.cpu.icache.ReadReq.mshrMisses::total         4307                       # number of ReadReq MSHR misses (Count)
system.cpu.icache.ReadReq.mshrMissLatency::cpu.inst    215857000                       # number of ReadReq MSHR miss ticks (Tick)
system.cpu.icache.ReadReq.mshrMissLatency::total    215857000                       # number of ReadReq MSHR miss ticks (Tick)
system.cpu.icache.ReadReq.mshrMissRate::cpu.inst     0.000572                       # mshr miss rate for ReadReq accesses (Ratio)
system.cpu.icache.ReadReq.mshrMissRate::total     0.000572                       # mshr miss rate for ReadReq accesses (Ratio)
system.cpu.icache.ReadReq.avgMshrMissLatency::cpu.inst 50117.715347                       # average ReadReq mshr miss latency ((Tick/Count))
system.cpu.icache.ReadReq.avgMshrMissLatency::total 50117.715347                       # average ReadReq mshr miss latency ((Tick/Count))
system.cpu.icache.power_state.pwrStateResidencyTicks::UNDEFINED  16354413000                       # Cumulative time (in ticks) in various power states (Tick)
system.cpu.icache.tags.tagsInUse           255.799851                       # Average ticks per tags in use ((Tick/Count))
system.cpu.icache.tags.totalRefs              7522998                       # Total number of references to valid blocks. (Count)
system.cpu.icache.tags.sampledRefs               4307                       # Sample count of references to valid blocks. (Count)
system.cpu.icache.tags.avgRefs            1746.690968                       # Average number of references to valid blocks. ((Count/Count))
system.cpu.icache.tags.warmupTick               87500                       # The tick when the warmup percentage was hit. (Tick)
system.cpu.icache.tags.occupancies::cpu.inst   255.799851                       # Average occupied blocks per tick, per requestor ((Count/Tick))
system.cpu.icache.tags.avgOccs::cpu.inst     0.999218                       # Average percentage of cache occupancy ((Ratio/Tick))
system.cpu.icache.tags.avgOccs::total        0.999218                       # Average percentage of cache occupancy ((Ratio/Tick))
system.cpu.icache.tags.occupanciesTaskId::1024          256                       # Occupied blocks per task id (Count)
system.cpu.icache.tags.ageTaskId_1024::4          256                       # Occupied blocks per task id, per block age (Count)
system.cpu.icache.tags.ratioOccsTaskId::1024            1                       # Ratio of occupied blocks and all blocks, per task id (Ratio)
system.cpu.icache.tags.tagAccesses           15052127                       # Number of tag accesses (Count)
system.cpu.icache.tags.dataAccesses          15052127                       # Number of data accesses (Count)
system.cpu.icache.tags.power_state.pwrStateResidencyTicks::UNDEFINED  16354413000                       # Cumulative time (in ticks) in various power states (Tick)
system.cpu.iew.idleCycles                           0                       # Number of cycles IEW is idle (Cycle)
system.cpu.iew.squashCycles                    447678                       # Number of cycles IEW is squashing (Cycle)
system.cpu.iew.blockCycles                    4906926                       # Number of cycles IEW is blocking (Cycle)
system.cpu.iew.unblockCycles                    35510                       # Number of cycles IEW is unblocking (Cycle)
system.cpu.iew.dispatchedInsts              117027207                       # Number of instructions dispatched to IQ (Count)
system.cpu.iew.dispSquashedInsts                 5590                       # Number of squashed instructions skipped by dispatch (Count)
system.cpu.iew.dispLoadInsts                 10847995                       # Number of dispatched load instructions (Count)
system.cpu.iew.dispStoreInsts                 4182424                       # Number of dispatched store instructions (Count)
system.cpu.iew.dispNonSpecInsts                   717                       # Number of dispatched non-speculative instructions (Count)
system.cpu.iew.iqFullEvents                     11368                       # Number of times the IQ has become full, causing a stall (Count)
system.cpu.iew.lsqFullEvents                    19690                       # Number of times the LSQ has become full, causing a stall (Count)
system.cpu.iew.memOrderViolationEvents           4998                       # Number of memory order violations (Count)
system.cpu.iew.predictedTakenIncorrect         199023                       # Number of branches that were predicted taken incorrectly (Count)
system.cpu.iew.predictedNotTakenIncorrect       247364                       # Number of branches that were predicted not taken incorrectly (Count)
system.cpu.iew.branchMispredicts               446387                       # Number of branch mispredicts detected at execute (Count)
system.cpu.iew.instsToCommit                102634143                       # Cumulative count of insts sent to commit (Count)
system.cpu.iew.writebackCount               102550306                       # Cumulative count of insts written-back (Count)
system.cpu.iew.producerInst                  81838526                       # Number of instructions producing a value (Count)
system.cpu.iew.consumerInst                 151626894                       # Number of instructions consuming a value (Count)
system.cpu.iew.wbRate                        3.135249                       # Insts written-back per cycle ((Count/Cycle))
system.cpu.iew.wbFanout                      0.539736                       # Average fanout of values written-back ((Count/Count))
system.cpu.interrupts.clk_domain.clock           8000                       # Clock period in ticks (Tick)
system.cpu.itb_walker_cache.blockedCycles::no_mshrs            0                       # number of cycles access was blocked (Cycle)
system.cpu.itb_walker_cache.blockedCycles::no_targets            0                       # number of cycles access was blocked (Cycle)
system.cpu.itb_walker_cache.blockedCauses::no_mshrs            0                       # number of times access was blocked (Count)
system.cpu.itb_walker_cache.blockedCauses::no_targets            0                       # number of times access was blocked (Count)
system.cpu.itb_walker_cache.avgBlocked::no_mshrs          nan                       # average number of cycles each access was blocked ((Cycle/Count))
system.cpu.itb_walker_cache.avgBlocked::no_targets          nan                       # average number of cycles each access was blocked ((Cycle/Count))
system.cpu.itb_walker_cache.replacements            0                       # number of replacements (Count)
system.cpu.itb_walker_cache.power_state.pwrStateResidencyTicks::UNDEFINED  16354413000                       # Cumulative time (in ticks) in various power states (Tick)
system.cpu.itb_walker_cache.tags.tagsInUse            0                       # Average ticks per tags in use ((Tick/Count))
system.cpu.itb_walker_cache.tags.totalRefs            0                       # Total number of references to valid blocks. (Count)
system.cpu.itb_walker_cache.tags.sampledRefs            0                       # Sample count of references to valid blocks. (Count)
system.cpu.itb_walker_cache.tags.avgRefs          nan                       # Average number of references to valid blocks. ((Count/Count))
system.cpu.itb_walker_cache.tags.warmupTick            0                       # The tick when the warmup percentage was hit. (Tick)
system.cpu.itb_walker_cache.tags.tagAccesses            0                       # Number of tag accesses (Count)
system.cpu.itb_walker_cache.tags.dataAccesses            0                       # Number of data accesses (Count)
system.cpu.itb_walker_cache.tags.power_state.pwrStateResidencyTicks::UNDEFINED  16354413000                       # Cumulative time (in ticks) in various power states (Tick)
system.cpu.lsq0.forwLoads                      852537                       # Number of loads that had data forwarded from stores (Count)
system.cpu.lsq0.squashedLoads                 2749988                       # Number of loads squashed (Count)
system.cpu.lsq0.ignoredResponses                  334                       # Number of memory responses ignored because the instruction is squashed (Count)
system.cpu.lsq0.memOrderViolation                4998                       # Number of memory ordering violations (Count)
system.cpu.lsq0.squashedStores                1667574                       # Number of stores squashed (Count)
system.cpu.lsq0.rescheduledLoads                   17                       # Number of loads that were rescheduled (Count)
system.cpu.lsq0.blockedByCache                    786                       # Number of times an access to memory failed due to the cache being blocked (Count)
system.cpu.lsq0.loadToUse::samples            8098001                       # Distribution of cycle latency between the first time a load is issued and its completion (Unspecified)
system.cpu.lsq0.loadToUse::mean              3.720597                       # Distribution of cycle latency between the first time a load is issued and its completion (Unspecified)
system.cpu.lsq0.loadToUse::stdev            11.616183                       # Distribution of cycle latency between the first time a load is issued and its completion (Unspecified)
system.cpu.lsq0.loadToUse::0-9                8046075     99.36%     99.36% # Distribution of cycle latency between the first time a load is issued and its completion (Unspecified)
system.cpu.lsq0.loadToUse::10-19                 2372      0.03%     99.39% # Distribution of cycle latency between the first time a load is issued and its completion (Unspecified)
system.cpu.lsq0.loadToUse::20-29                12728      0.16%     99.55% # Distribution of cycle latency between the first time a load is issued and its completion (Unspecified)
system.cpu.lsq0.loadToUse::30-39                  700      0.01%     99.55% # Distribution of cycle latency between the first time a load is issued and its completion (Unspecified)
system.cpu.lsq0.loadToUse::40-49                  208      0.00%     99.56% # Distribution of cycle latency between the first time a load is issued and its completion (Unspecified)
system.cpu.lsq0.loadToUse::50-59                  201      0.00%     99.56% # Distribution of cycle latency between the first time a load is issued and its completion (Unspecified)
system.cpu.lsq0.loadToUse::60-69                  296      0.00%     99.56% # Distribution of cycle latency between the first time a load is issued and its completion (Unspecified)
[...]
system.mem_ctrls.dram.perBankWrBursts::12          386                       # Per bank write bursts (Count)
system.mem_ctrls.dram.perBankWrBursts::13          357                       # Per bank write bursts (Count)
system.mem_ctrls.dram.perBankWrBursts::14          607                       # Per bank write bursts (Count)
system.mem_ctrls.dram.perBankWrBursts::15          466                       # Per bank write bursts (Count)
system.mem_ctrls.dram.totQLat               279628250                       # Total ticks spent queuing (Tick)
system.mem_ctrls.dram.totBusLat             109310000                       # Total ticks spent in databus transfers (Tick)
system.mem_ctrls.dram.totMemAccLat          689540750                       # Total ticks spent from burst creation until serviced by the DRAM (Tick)
system.mem_ctrls.dram.avgQLat                12790.61                       # Average queueing delay per DRAM burst ((Tick/Count))
system.mem_ctrls.dram.avgBusLat               5000.00                       # Average bus latency per DRAM burst ((Tick/Count))
system.mem_ctrls.dram.avgMemAccLat           31540.61                       # Average memory access latency per DRAM burst ((Tick/Count))
system.mem_ctrls.dram.readRowHits               13889                       # Number of row buffer hits during reads (Count)
system.mem_ctrls.dram.writeRowHits               5443                       # Number of row buffer hits during writes (Count)
system.mem_ctrls.dram.readRowHitRate            63.53                       # Row buffer hit rate for reads (Ratio)
system.mem_ctrls.dram.writeRowHitRate           84.64                       # Row buffer hit rate for writes (Ratio)
system.mem_ctrls.dram.bytesPerActivate::samples         8960                       # Bytes accessed per row activation (Byte)
system.mem_ctrls.dram.bytesPerActivate::mean   202.078571                       # Bytes accessed per row activation (Byte)
system.mem_ctrls.dram.bytesPerActivate::gmean   136.213629                       # Bytes accessed per row activation (Byte)
system.mem_ctrls.dram.bytesPerActivate::stdev   228.118770                       # Bytes accessed per row activation (Byte)
system.mem_ctrls.dram.bytesPerActivate::0-127         3754     41.90%     41.90% # Bytes accessed per row activation (Byte)
system.mem_ctrls.dram.bytesPerActivate::128-255         2910     32.48%     74.37% # Bytes accessed per row activation (Byte)
system.mem_ctrls.dram.bytesPerActivate::256-383         1188     13.26%     87.63% # Bytes accessed per row activation (Byte)
system.mem_ctrls.dram.bytesPerActivate::384-511          298      3.33%     90.96% # Bytes accessed per row activation (Byte)
system.mem_ctrls.dram.bytesPerActivate::512-639          184      2.05%     93.01% # Bytes accessed per row activation (Byte)
system.mem_ctrls.dram.bytesPerActivate::640-767           98      1.09%     94.11% # Bytes accessed per row activation (Byte)
system.mem_ctrls.dram.bytesPerActivate::768-895           87      0.97%     95.08% # Bytes accessed per row activation (Byte)
system.mem_ctrls.dram.bytesPerActivate::896-1023           61      0.68%     95.76% # Bytes accessed per row activation (Byte)
system.mem_ctrls.dram.bytesPerActivate::1024-1151          380      4.24%    100.00% # Bytes accessed per row activation (Byte)
system.mem_ctrls.dram.bytesPerActivate::total         8960                       # Bytes accessed per row activation (Byte)
system.mem_ctrls.dram.bytesRead               1399168                       # Total bytes read (Byte)
system.mem_ctrls.dram.bytesWritten             411584                       # Total bytes written (Byte)
system.mem_ctrls.dram.avgRdBW               85.552933                       # Average DRAM read bandwidth in MiBytes/s ((Byte/Second))
system.mem_ctrls.dram.avgWrBW               25.166541                       # Average DRAM write bandwidth in MiBytes/s ((Byte/Second))
system.mem_ctrls.dram.peakBW                 12800.00                       # Theoretical peak bandwidth in MiByte/s ((Byte/Second))
system.mem_ctrls.dram.busUtil                    0.86                       # Data bus utilization in percentage (Ratio)
system.mem_ctrls.dram.busUtilRead                0.67                       # Data bus utilization in percentage for reads (Ratio)
system.mem_ctrls.dram.busUtilWrite               0.20                       # Data bus utilization in percentage for writes (Ratio)
system.mem_ctrls.dram.pageHitRate               68.33                       # Row buffer hit rate, read and write combined (Ratio)
system.mem_ctrls.dram.power_state.pwrStateResidencyTicks::UNDEFINED  16354413000                       # Cumulative time (in ticks) in various power states (Tick)
system.mem_ctrls.dram.rank0.actEnergy        33465180                       # Energy for activate commands per rank (pJ) (Joule)
system.mem_ctrls.dram.rank0.preEnergy        17783370                       # Energy for precharge commands per rank (pJ) (Joule)
system.mem_ctrls.dram.rank0.readEnergy       77076300                       # Energy for read commands per rank (pJ) (Joule)
system.mem_ctrls.dram.rank0.writeEnergy      15665220                       # Energy for write commands per rank (pJ) (Joule)
system.mem_ctrls.dram.rank0.refreshEnergy 1290744000.000000                       # Energy for refresh commands per rank (pJ) (Joule)
system.mem_ctrls.dram.rank0.actBackEnergy   3298917180                       # Energy for active background per rank (pJ) (Joule)
system.mem_ctrls.dram.rank0.preBackEnergy   3502059360                       # Energy for precharge background per rank (pJ) (Joule)
system.mem_ctrls.dram.rank0.actPowerDownEnergy            0                       # Energy for active power-down per rank (pJ) (Joule)
system.mem_ctrls.dram.rank0.prePowerDownEnergy            0                       # Energy for precharge power-down per rank (pJ) (Joule)
system.mem_ctrls.dram.rank0.selfRefreshEnergy            0                       # Energy for self refresh per rank (pJ) (Joule)
system.mem_ctrls.dram.rank0.totalEnergy    8235710610                       # Total energy per rank (pJ) (Joule)
system.mem_ctrls.dram.rank0.averagePower   503.577267                       # Core power per rank (mW) (Watt)
system.mem_ctrls.dram.rank0.totalIdleTime            0                       # Total Idle time Per DRAM Rank (Tick)
system.mem_ctrls.dram.rank0.pwrStateTime::IDLE   9071426750                       # Time in different power states (Tick)
system.mem_ctrls.dram.rank0.pwrStateTime::REF    546000000                       # Time in different power states (Tick)
system.mem_ctrls.dram.rank0.pwrStateTime::SREF            0                       # Time in different power states (Tick)
system.mem_ctrls.dram.rank0.pwrStateTime::PRE_PDN            0                       # Time in different power states (Tick)
system.mem_ctrls.dram.rank0.pwrStateTime::ACT   6736986250                       # Time in different power states (Tick)
system.mem_ctrls.dram.rank0.pwrStateTime::ACT_PDN            0                       # Time in different power states (Tick)
system.mem_ctrls.dram.rank1.actEnergy        30516360                       # Energy for activate commands per rank (pJ) (Joule)
system.mem_ctrls.dram.rank1.preEnergy        16219830                       # Energy for precharge commands per rank (pJ) (Joule)
system.mem_ctrls.dram.rank1.readEnergy       79018380                       # Energy for read commands per rank (pJ) (Joule)
system.mem_ctrls.dram.rank1.writeEnergy      17904600                       # Energy for write commands per rank (pJ) (Joule)
system.mem_ctrls.dram.rank1.refreshEnergy 1290744000.000000                       # Energy for refresh commands per rank (pJ) (Joule)
system.mem_ctrls.dram.rank1.actBackEnergy   3275751810                       # Energy for active background per rank (pJ) (Joule)
system.mem_ctrls.dram.rank1.preBackEnergy   3521567040                       # Energy for precharge background per rank (pJ) (Joule)
system.mem_ctrls.dram.rank1.actPowerDownEnergy            0                       # Energy for active power-down per rank (pJ) (Joule)
system.mem_ctrls.dram.rank1.prePowerDownEnergy            0                       # Energy for precharge power-down per rank (pJ) (Joule)
system.mem_ctrls.dram.rank1.selfRefreshEnergy            0                       # Energy for self refresh per rank (pJ) (Joule)
system.mem_ctrls.dram.rank1.totalEnergy    8231722020                       # Total energy per rank (pJ) (Joule)
system.mem_ctrls.dram.rank1.averagePower   503.333383                       # Core power per rank (mW) (Watt)
system.mem_ctrls.dram.rank1.totalIdleTime            0                       # Total Idle time Per DRAM Rank (Tick)
system.mem_ctrls.dram.rank1.pwrStateTime::IDLE   9122338250                       # Time in different power states (Tick)
system.mem_ctrls.dram.rank1.pwrStateTime::REF    546000000                       # Time in different power states (Tick)
system.mem_ctrls.dram.rank1.pwrStateTime::SREF            0                       # Time in different power states (Tick)
system.mem_ctrls.dram.rank1.pwrStateTime::PRE_PDN            0                       # Time in different power states (Tick)
system.mem_ctrls.dram.rank1.pwrStateTime::ACT   6686074750                       # Time in different power states (Tick)
system.mem_ctrls.dram.rank1.pwrStateTime::ACT_PDN            0                       # Time in different power states (Tick)
system.mem_ctrls.power_state.pwrStateResidencyTicks::UNDEFINED  16354413000                       # Cumulative time (in ticks) in various power states (Tick)
system.membus.transDist::ReadResp               13809                       # Transaction distribution (Count)
system.membus.transDist::WritebackDirty          6448                       # Transaction distribution (Count)
system.membus.transDist::CleanEvict             13109                       # Transaction distribution (Count)
system.membus.transDist::ReadExReq               8115                       # Transaction distribution (Count)
system.membus.transDist::ReadExResp              8114                       # Transaction distribution (Count)
system.membus.transDist::ReadSharedReq          13809                       # Transaction distribution (Count)
system.membus.pktCount_system.l2.mem_side_port::system.mem_ctrls.port        63404                       # Packet count per connected requestor and responder (Count)
system.membus.pktCount_system.l2.mem_side_port::total        63404                       # Packet count per connected requestor and responder (Count)
system.membus.pktCount::total                   63404                       # Packet count per connected requestor and responder (Count)
system.membus.pktSize_system.l2.mem_side_port::system.mem_ctrls.port      1815744                       # Cumulative packet size per connected requestor and responder (Byte)
system.membus.pktSize_system.l2.mem_side_port::total      1815744                       # Cumulative packet size per connected requestor and responder (Byte)
system.membus.pktSize::total                  1815744                       # Cumulative packet size per connected requestor and responder (Byte)
system.membus.snoops                                0                       # Total snoops (Count)
system.membus.snoopTraffic                          0                       # Total snoop traffic (Byte)
system.membus.snoopFanout::samples              21924                       # Request fanout histogram (Count)
system.membus.snoopFanout::mean                     0                       # Request fanout histogram (Count)
system.membus.snoopFanout::stdev                    0                       # Request fanout histogram (Count)
system.membus.snoopFanout::underflows               0      0.00%      0.00% # Request fanout histogram (Count)
system.membus.snoopFanout::0                    21924    100.00%    100.00% # Request fanout histogram (Count)
system.membus.snoopFanout::1                        0      0.00%    100.00% # Request fanout histogram (Count)
system.membus.snoopFanout::overflows                0      0.00%    100.00% # Request fanout histogram (Count)
system.membus.snoopFanout::min_value                0                       # Request fanout histogram (Count)
system.membus.snoopFanout::max_value                0                       # Request fanout histogram (Count)
system.membus.snoopFanout::total                21924                       # Request fanout histogram (Count)
system.membus.power_state.pwrStateResidencyTicks::UNDEFINED  16354413000                       # Cumulative time (in ticks) in various power states (Tick)
system.membus.reqLayer2.occupancy            72732000                       # Layer occupancy (ticks) (Tick)
system.membus.reqLayer2.utilization               0.0                       # Layer utilization (Ratio)
system.membus.respLayer1.occupancy          117550000                       # Layer occupancy (ticks) (Tick)
system.membus.respLayer1.utilization              0.0                       # Layer utilization (Ratio)
system.membus.snoop_filter.totRequests          41481                       # Total number of requests made to the snoop filter. (Count)
system.membus.snoop_filter.hitSingleRequests        19557                       # Number of requests hitting in the snoop filter with a single holder of the requested data. (Count)
system.membus.snoop_filter.hitMultiRequests            0                       # Number of requests hitting in the snoop filter with multiple (>1) holders of the requested data. (Count)
system.membus.snoop_filter.totSnoops                0                       # Total number of snoops made to the snoop filter. (Count)
system.membus.snoop_filter.hitSingleSnoops            0                       # Number of snoops hitting in the snoop filter with a single holder of the requested data. (Count)
system.membus.snoop_filter.hitMultiSnoops            0                       # Number of snoops hitting in the snoop filter with multiple (>1) holders of the requested data. (Count)
system.tol2bus.transDist::ReadResp              25803                       # Transaction distribution (Count)
system.tol2bus.transDist::WritebackDirty        18911                       # Transaction distribution (Count)
system.tol2bus.transDist::WritebackClean         4051                       # Transaction distribution (Count)
system.tol2bus.transDist::CleanEvict            32049                       # Transaction distribution (Count)
system.tol2bus.transDist::ReadExReq              9238                       # Transaction distribution (Count)
system.tol2bus.transDist::ReadExResp             9237                       # Transaction distribution (Count)
system.tol2bus.transDist::ReadCleanReq           4307                       # Transaction distribution (Count)
system.tol2bus.transDist::ReadSharedReq         21496                       # Transaction distribution (Count)
system.tol2bus.pktCount_system.cpu.icache.mem_side_port::system.l2.cpu_side_port        12661                       # Packet count per connected requestor and responder (Count)
system.tol2bus.pktCount_system.cpu.dcache.mem_side_port::system.l2.cpu_side_port        91944                       # Packet count per connected requestor and responder (Count)
system.tol2bus.pktCount::total                 104605                       # Packet count per connected requestor and responder (Count)
system.tol2bus.pktSize_system.cpu.icache.mem_side_port::system.l2.cpu_side_port       534656                       # Cumulative packet size per connected requestor and responder (Byte)
system.tol2bus.pktSize_system.cpu.dcache.mem_side_port::system.l2.cpu_side_port      2764544                       # Cumulative packet size per connected requestor and responder (Byte)
system.tol2bus.pktSize::total                 3299200                       # Cumulative packet size per connected requestor and responder (Byte)
system.tol2bus.snoops                           20487                       # Total snoops (Count)
system.tol2bus.snoopTraffic                    412928                       # Total snoop traffic (Byte)
system.tol2bus.snoopFanout::samples             55524                       # Request fanout histogram (Count)
system.tol2bus.snoopFanout::mean             0.017398                       # Request fanout histogram (Count)
system.tol2bus.snoopFanout::stdev            0.130750                       # Request fanout histogram (Count)
system.tol2bus.snoopFanout::underflows              0      0.00%      0.00% # Request fanout histogram (Count)
system.tol2bus.snoopFanout::0                   54558     98.26%     98.26% # Request fanout histogram (Count)
system.tol2bus.snoopFanout::1                     966      1.74%    100.00% # Request fanout histogram (Count)
system.tol2bus.snoopFanout::2                       0      0.00%    100.00% # Request fanout histogram (Count)
system.tol2bus.snoopFanout::3                       0      0.00%    100.00% # Request fanout histogram (Count)
system.tol2bus.snoopFanout::4                       0      0.00%    100.00% # Request fanout histogram (Count)
system.tol2bus.snoopFanout::overflows               0      0.00%    100.00% # Request fanout histogram (Count)
system.tol2bus.snoopFanout::min_value               0                       # Request fanout histogram (Count)
system.tol2bus.snoopFanout::max_value               1                       # Request fanout histogram (Count)
system.tol2bus.snoopFanout::total               55524                       # Request fanout histogram (Count)
system.tol2bus.power_state.pwrStateResidencyTicks::UNDEFINED  16354413000                       # Cumulative time (in ticks) in various power states (Tick)
system.tol2bus.reqLayer0.occupancy           51298500                       # Layer occupancy (ticks) (Tick)
system.tol2bus.reqLayer0.utilization              0.0                       # Layer utilization (Ratio)
system.tol2bus.respLayer0.occupancy           6464991                       # Layer occupancy (ticks) (Tick)
system.tol2bus.respLayer0.utilization             0.0                       # Layer utilization (Ratio)
system.tol2bus.respLayer1.occupancy          46100498                       # Layer occupancy (ticks) (Tick)
system.tol2bus.respLayer1.utilization             0.0                       # Layer utilization (Ratio)
system.tol2bus.snoop_filter.totRequests         69569                       # Total number of requests made to the snoop filter. (Count)
system.tol2bus.snoop_filter.hitSingleRequests        34528                       # Number of requests hitting in the snoop filter with a single holder of the requested data. (Count)
system.tol2bus.snoop_filter.hitMultiRequests           10                       # Number of requests hitting in the snoop filter with multiple (>1) holders of the requested data. (Count)
system.tol2bus.snoop_filter.totSnoops             956                       # Total number of snoops made to the snoop filter. (Count)
system.tol2bus.snoop_filter.hitSingleSnoops          956                       # Number of snoops hitting in the snoop filter with a single holder of the requested data. (Count)
system.tol2bus.snoop_filter.hitMultiSnoops            0                       # Number of snoops hitting in the snoop filter with multiple (>1) holders of the requested data. (Count)
system.voltage_domain.voltage                       1                       # Voltage in Volts (Volt)
system.workload.inst.arm                            0                       # number of arm instructions executed (Count)
system.workload.inst.quiesce                        0                       # number of quiesce instructions executed (Count)

---------- End Simulation Statistics   ----------
