
---------- Begin Simulation Statistics ----------
simSeconds                                   0.282314                       # Number of seconds simulated (Second)
simTicks                                 282313751500                       # Number of ticks simulated (Tick)
finalTick                                282313751500                       # Number of ticks from beginning of simulation (restored from checkpoints and never reset) (Tick)
simFreq                                  1000000000000                       # The number of ticks per simulated second ((Tick/Second))
hostSeconds                                    563.95                       # Real time elapsed on the host (Second)
hostTickRate                                500598147                       # The number of ticks simulated per host second (ticks/s) ((Tick/Second))
hostMemory                                     673512                       # Number of bytes of host memory used (Byte)
simInsts                                     50000000                       # Number of instructions simulated (Count)
simOps                                       91667295                       # Number of ops (including micro ops) simulated (Count)
hostInstRate                                    88660                       # Simulator instruction rate (inst/s) ((Count/Second))
hostOpRate                                     162544                       # Simulator op (including micro ops) rate (op/s) ((Count/Second))
system.clk_domain.clock                          1000                       # Clock period in ticks (Tick)
system.cpu.numCycles                        564627504                       # Number of cpu cycles simulated (Cycle)
system.cpu.numWorkItemsStarted                      0                       # Number of work items this cpu started (Count)
system.cpu.numWorkItemsCompleted                    0                       # Number of work items this cpu completed (Count)
system.cpu.instsAdded                        91889958                       # Number of instructions added to the IQ (excludes non-spec) (Count)
system.cpu.nonSpecInstsAdded                       25                       # Number of non-speculative instructions added to the IQ (Count)
system.cpu.instsIssued                       91828724                       # Number of instructions issued (Count)
system.cpu.squashedInstsIssued                   1360                       # Number of squashed instructions issued (Count)
system.cpu.squashedInstsExamined               222679                       # Number of squashed instructions iterated over during squash; mainly for profiling (Count)
system.cpu.squashedOperandsExamined            274665                       # Number of squashed operands that are examined and possibly removed from graph (Count)
system.cpu.squashedNonSpecRemoved                   7                       # Number of squashed non-spec instructions that were removed (Count)
system.cpu.numIssuedDist::samples           564523136                       # Number of insts issued each cycle (Count)
system.cpu.numIssuedDist::mean               0.162666                       # Number of insts issued each cycle (Count)
system.cpu.numIssuedDist::stdev              0.691214                       # Number of insts issued each cycle (Count)
system.cpu.numIssuedDist::underflows                0      0.00%      0.00% # Number of insts issued each cycle (Count)
system.cpu.numIssuedDist::0                 521833421     92.44%     92.44% # Number of insts issued each cycle (Count)
system.cpu.numIssuedDist::1                  20783044      3.68%     96.12% # Number of insts issued each cycle (Count)
system.cpu.numIssuedDist::2                   9365650      1.66%     97.78% # Number of insts issued each cycle (Count)
system.cpu.numIssuedDist::3                   3133278      0.56%     98.33% # Number of insts issued each cycle (Count)
system.cpu.numIssuedDist::4                   4170450      0.74%     99.07% # Number of insts issued each cycle (Count)
system.cpu.numIssuedDist::5                   5206542      0.92%     99.99% # Number of insts issued each cycle (Count)
system.cpu.numIssuedDist::6                     19686      0.00%    100.00% # Number of insts issued each cycle (Count)
system.cpu.numIssuedDist::7                      6600      0.00%    100.00% # Number of insts issued each cycle (Count)
system.cpu.numIssuedDist::8                      4465      0.00%    100.00% # Number of insts issued each cycle (Count)
system.cpu.numIssuedDist::overflows                 0      0.00%    100.00% # Number of insts issued each cycle (Count)
system.cpu.numIssuedDist::min_value                 0                       # Number of insts issued each cycle (Count)
system.cpu.numIssuedDist::max_value                 8                       # Number of insts issued each cycle (Count)
system.cpu.numIssuedDist::total             564523136                       # Number of insts issued each cycle (Count)
system.cpu.statFuBusy::No_OpClass                   0      0.00%      0.00% # attempts to use FU when none available (Count)
system.cpu.statFuBusy::IntAlu                    8972     89.51%     89.51% # attempts to use FU when none available (Count)
system.cpu.statFuBusy::IntMult                      0      0.00%     89.51% # attempts to use FU when none available (Count)
system.cpu.statFuBusy::IntDiv                       0      0.00%     89.51% # attempts to use FU when none available (Count)
system.cpu.statFuBusy::FloatAdd                     0      0.00%     89.51% # attempts to use FU when none available (Count)
system.cpu.statFuBusy::FloatCmp                     0      0.00%     89.51% # attempts to use FU when none available (Count)
system.cpu.statFuBusy::FloatCvt                     0      0.00%     89.51% # attempts to use FU when none available (Count)
system.cpu.statFuBusy::FloatMult                    0      0.00%     89.51% # attempts to use FU when none available (Count)
system.cpu.statFuBusy::FloatMultAcc                 0      0.00%     89.51% # attempts to use FU when none available (Count)
system.cpu.statFuBusy::FloatDiv                     0      0.00%     89.51% # attempts to use FU when none available (Count)
system.cpu.statFuBusy::FloatMisc                    0      0.00%     89.51% # attempts to use FU when none available (Count)
system.cpu.statFuBusy::FloatSqrt                    0      0.00%     89.51% # attempts to use FU when none available (Count)
system.cpu.statFuBusy::SimdAdd                      0      0.00%     89.51% # attempts to use FU when none available (Count)
system.cpu.statFuBusy::SimdAddAcc                   0      0.00%     89.51% # attempts to use FU when none available (Count)
system.cpu.statFuBusy::SimdAlu                     29      0.29%     89.80% # attempts to use FU when none available (Count)
system.cpu.statFuBusy::SimdCmp                      0      0.00%     89.80% # attempts to use FU when none available (Count)
system.cpu.statFuBusy::SimdCvt                     21      0.21%     90.01% # attempts to use FU when none available (Count)
system.cpu.statFuBusy::SimdMisc                     9      0.09%     90.10% # attempts to use FU when none available (Count)
system.cpu.statFuBusy::SimdMult                     0      0.00%     90.10% # attempts to use FU when none available (Count)
system.cpu.statFuBusy::SimdMultAcc                  0      0.00%     90.10% # attempts to use FU when none available (Count)
system.cpu.statFuBusy::SimdShift                    0      0.00%     90.10% # attempts to use FU when none available (Count)
system.cpu.statFuBusy::SimdShiftAcc                 0      0.00%     90.10% # attempts to use FU when none available (Count)
system.cpu.statFuBusy::SimdDiv                      0      0.00%     90.10% # attempts to use FU when none available (Count)
system.cpu.statFuBusy::SimdSqrt                     0      0.00%     90.10% # attempts to use FU when none available (Count)
system.cpu.statFuBusy::SimdFloatAdd                 0      0.00%     90.10% # attempts to use FU when none available (Count)
system.cpu.statFuBusy::SimdFloatAlu                 0      0.00%     90.10% # attempts to use FU when none available (Count)
system.cpu.statFuBusy::SimdFloatCmp                 0      0.00%     90.10% # attempts to use FU when none available (Count)
system.cpu.statFuBusy::SimdFloatCvt                 0      0.00%     90.10% # attempts to use FU when none available (Count)
system.cpu.statFuBusy::SimdFloatDiv                 0      0.00%     90.10% # attempts to use FU when none available (Count)
system.cpu.statFuBusy::SimdFloatMisc                0      0.00%     90.10% # attempts to use FU when none available (Count)
system.cpu.statFuBusy::SimdFloatMult                0      0.00%     90.10% # attempts to use FU when none available (Count)
system.cpu.statFuBusy::SimdFloatMultAcc             0      0.00%     90.10% # attempts to use FU when none available (Count)
system.cpu.statFuBusy::SimdFloatSqrt                0      0.00%     90.10% # attempts to use FU when none available (Count)
system.cpu.statFuBusy::SimdReduceAdd                0      0.00%     90.10% # attempts to use FU when none available (Count)
system.cpu.statFuBusy::SimdReduceAlu                0      0.00%     90.10% # attempts to use FU when none available (Count)
system.cpu.statFuBusy::SimdReduceCmp                0      0.00%     90.10% # attempts to use FU when none available (Count)
system.cpu.statFuBusy::SimdFloatReduceAdd            0      0.00%     90.10% # attempts to use FU when none available (Count)
system.cpu.statFuBusy::SimdFloatReduceCmp            0      0.00%     90.10% # attempts to use FU when none available (Count)
system.cpu.statFuBusy::SimdAes                      0      0.00%     90.10% # attempts to use FU when none available (Count)
system.cpu.statFuBusy::SimdAesMix                   0      0.00%     90.10% # attempts to use FU when none available (Count)
system.cpu.statFuBusy::SimdSha1Hash                 0      0.00%     90.10% # attempts to use FU when none available (Count)
system.cpu.statFuBusy::SimdSha1Hash2                0      0.00%     90.10% # attempts to use FU when none available (Count)
system.cpu.statFuBusy::SimdSha256Hash               0      0.00%     90.10% # attempts to use FU when none available (Count)
system.cpu.statFuBusy::SimdSha256Hash2              0      0.00%     90.10% # attempts to use FU when none available (Count)
system.cpu.statFuBusy::SimdShaSigma2                0      0.00%     90.10% # attempts to use FU when none available (Count)
system.cpu.statFuBusy::SimdShaSigma3                0      0.00%     90.10% # attempts to use FU when none available (Count)
system.cpu.statFuBusy::SimdPredAlu                  0      0.00%     90.10% # attempts to use FU when none available (Count)
system.cpu.statFuBusy::MemRead                    585      5.84%     95.94% # attempts to use FU when none available (Count)
system.cpu.statFuBusy::MemWrite                   315      3.14%     99.08% # attempts to use FU when none available (Count)
system.cpu.statFuBusy::FloatMemRead                53      0.53%     99.61% # attempts to use FU when none available (Count)
system.cpu.statFuBusy::FloatMemWrite               39      0.39%    100.00% # attempts to use FU when none available (Count)
system.cpu.statFuBusy::IprAccess                    0      0.00%    100.00% # attempts to use FU when none available (Count)
system.cpu.statFuBusy::InstPrefetch                 0      0.00%    100.00% # attempts to use FU when none available (Count)
system.cpu.statIssuedInstType_0::No_OpClass         3652      0.00%      0.00% # Number of instructions issued per FU type, per thread (Count)
system.cpu.statIssuedInstType_0::IntAlu      66825570     72.77%     72.78% # Number of instructions issued per FU type, per thread (Count)
system.cpu.statIssuedInstType_0::IntMult           56      0.00%     72.78% # Number of instructions issued per FU type, per thread (Count)
system.cpu.statIssuedInstType_0::IntDiv          1575      0.00%     72.78% # Number of instructions issued per FU type, per thread (Count)
system.cpu.statIssuedInstType_0::FloatAdd          663      0.00%     72.78% # Number of instructions issued per FU type, per thread (Count)
system.cpu.statIssuedInstType_0::FloatCmp            0      0.00%     72.78% # Number of instructions issued per FU type, per thread (Count)
system.cpu.statIssuedInstType_0::FloatCvt           32      0.00%     72.78% # Number of instructions issued per FU type, per thread (Count)
system.cpu.statIssuedInstType_0::FloatMult            0      0.00%     72.78% # Number of instructions issued per FU type, per thread (Count)
system.cpu.statIssuedInstType_0::FloatMultAcc            0      0.00%     72.78% # Number of instructions issued per FU type, per thread (Count)
system.cpu.statIssuedInstType_0::FloatDiv            0      0.00%     72.78% # Number of instructions issued per FU type, per thread (Count)
system.cpu.statIssuedInstType_0::FloatMisc            0      0.00%     72.78% # Number of instructions issued per FU type, per thread (Count)
system.cpu.statIssuedInstType_0::FloatSqrt            0      0.00%     72.78% # Number of instructions issued per FU type, per thread (Count)
system.cpu.statIssuedInstType_0::SimdAdd          446      0.00%     72.78% # Number of instructions issued per FU type, per thread (Count)
system.cpu.statIssuedInstType_0::SimdAddAcc            0      0.00%     72.78% # Number of instructions issued per FU type, per thread (Count)
system.cpu.statIssuedInstType_0::SimdAlu         1345      0.00%     72.78% # Number of instructions issued per FU type, per thread (Count)
system.cpu.statIssuedInstType_0::SimdCmp            8      0.00%     72.78% # Number of instructions issued per FU type, per thread (Count)
system.cpu.statIssuedInstType_0::SimdCvt         1288      0.00%     72.78% # Number of instructions issued per FU type, per thread (Count)
system.cpu.statIssuedInstType_0::SimdMisc         1181      0.00%     72.78% # Number of instructions issued per FU type, per thread (Count)
system.cpu.statIssuedInstType_0::SimdMult            0      0.00%     72.78% # Number of instructions issued per FU type, per thread (Count)
system.cpu.statIssuedInstType_0::SimdMultAcc            0      0.00%     72.78% # Number of instructions issued per FU type, per thread (Count)
system.cpu.statIssuedInstType_0::SimdShift          367      0.00%     72.78% # Number of instructions issued per FU type, per thread (Count)
system.cpu.statIssuedInstType_0::SimdShiftAcc            0      0.00%     72.78% # Number of instructions issued per FU type, per thread (Count)
system.cpu.statIssuedInstType_0::SimdDiv            0      0.00%     72.78% # Number of instructions issued per FU type, per thread (Count)
system.cpu.statIssuedInstType_0::SimdSqrt            0      0.00%     72.78% # Number of instructions issued per FU type, per thread (Count)
system.cpu.statIssuedInstType_0::SimdFloatAdd            0      0.00%     72.78% # Number of instructions issued per FU type, per thread (Count)
system.cpu.statIssuedInstType_0::SimdFloatAlu            0      0.00%     72.78% # Number of instructions issued per FU type, per thread (Count)
system.cpu.statIssuedInstType_0::SimdFloatCmp            0      0.00%     72.78% # Number of instructions issued per FU type, per thread (Count)
system.cpu.statIssuedInstType_0::SimdFloatCvt            8      0.00%     72.78% # Number of instructions issued per FU type, per thread (Count)
system.cpu.statIssuedInstType_0::SimdFloatDiv            0      0.00%     72.78% # Number of instructions issued per FU type, per thread (Count)
system.cpu.statIssuedInstType_0::SimdFloatMisc            0      0.00%     72.78% # Number of instructions issued per FU type, per thread (Count)
system.cpu.statIssuedInstType_0::SimdFloatMult            0      0.00%     72.78% # Number of instructions issued per FU type, per thread (Count)
system.cpu.statIssuedInstType_0::SimdFloatMultAcc            0      0.00%     72.78% # Number of instructions issued per FU type, per thread (Count)
system.cpu.statIssuedInstType_0::SimdFloatSqrt            0      0.00%     72.78% # Number of instructions issued per FU type, per thread (Count)
system.cpu.statIssuedInstType_0::SimdReduceAdd            0      0.00%     72.78% # Number of instructions issued per FU type, per thread (Count)
system.cpu.statIssuedInstType_0::SimdReduceAlu            0      0.00%     72.78% # Number of instructions issued per FU type, per thread (Count)
system.cpu.statIssuedInstType_0::SimdReduceCmp            0      0.00%     72.78% # Number of instructions issued per FU type, per thread (Count)
system.cpu.statIssuedInstType_0::SimdFloatReduceAdd            0      0.00%     72.78% # Number of instructions issued per FU type, per thread (Count)
system.cpu.statIssuedInstType_0::SimdFloatReduceCmp            0      0.00%     72.78% # Number of instructions issued per FU type, per thread (Count)
system.cpu.statIssuedInstType_0::SimdAes            0      0.00%     72.78% # Number of instructions issued per FU type, per thread (Count)
system.cpu.statIssuedInstType_0::SimdAesMix            0      0.00%     72.78% # Number of instructions issued per FU type, per thread (Count)
system.cpu.statIssuedInstType_0::SimdSha1Hash            0      0.00%     72.78% # Number of instructions issued per FU type, per thread (Count)
system.cpu.statIssuedInstType_0::SimdSha1Hash2            0      0.00%     72.78% # Number of instructions issued per FU type, per thread (Count)
system.cpu.statIssuedInstType_0::SimdSha256Hash            0      0.00%     72.78% # Number of instructions issued per FU type, per thread (Count)
system.cpu.statIssuedInstType_0::SimdSha256Hash2            0      0.00%     72.78% # Number of instructions issued per FU type, per thread (Count)
system.cpu.statIssuedInstType_0::SimdShaSigma2            0      0.00%     72.78% # Number of instructions issued per FU type, per thread (Count)
system.cpu.statIssuedInstType_0::SimdShaSigma3            0      0.00%     72.78% # Number of instructions issued per FU type, per thread (Count)
system.cpu.statIssuedInstType_0::SimdPredAlu            0      0.00%     72.78% # Number of instructions issued per FU type, per thread (Count)
system.cpu.statIssuedInstType_0::MemRead        62609      0.07%     72.85% # Number of instructions issued per FU type, per thread (Count)
system.cpu.statIssuedInstType_0::MemWrite      8319956      9.06%     81.91% # Number of instructions issued per FU type, per thread (Count)
system.cpu.statIssuedInstType_0::FloatMemRead         2179      0.00%     81.91% # Number of instructions issued per FU type, per thread (Count)
system.cpu.statIssuedInstType_0::FloatMemWrite     16607789     18.09%    100.00% # Number of instructions issued per FU type, per thread (Count)
system.cpu.statIssuedInstType_0::IprAccess            0      0.00%    100.00% # Number of instructions issued per FU type, per thread (Count)
system.cpu.statIssuedInstType_0::InstPrefetch            0      0.00%    100.00% # Number of instructions issued per FU type, per thread (Count)
system.cpu.statIssuedInstType_0::total       91828724                       # Number of instructions issued per FU type, per thread (Count)
system.cpu.issueRate                         0.162636                       # Inst issue rate ((Count/Cycle))
system.cpu.fuBusy                               10023                       # FU busy when requested (Count)
system.cpu.fuBusyRate                        0.000109                       # FU busy rate (busy events/executed inst) ((Count/Count))
system.cpu.intInstQueueReads                714960343                       # Number of integer instruction queue reads (Count)
system.cpu.intInstQueueWrites                75490048                       # Number of integer instruction queue writes (Count)
system.cpu.intInstQueueWakeupAccesses        75197366                       # Number of integer instruction queue wakeup accesses (Count)
system.cpu.fpInstQueueReads                  33231623                       # Number of floating instruction queue reads (Count)
system.cpu.fpInstQueueWrites                 16622946                       # Number of floating instruction queue writes (Count)
system.cpu.fpInstQueueWakeupAccesses         16614948                       # Number of floating instruction queue wakeup accesses (Count)
system.cpu.vecInstQueueReads                        0                       # Number of vector instruction queue reads (Count)
system.cpu.vecInstQueueWrites                       0                       # Number of vector instruction queue writes (Count)
system.cpu.vecInstQueueWakeupAccesses               0                       # Number of vector instruction queue wakeup accesses (Count)
system.cpu.intAluAccesses                    75219238                       # Number of integer alu accesses (Count)
system.cpu.fpAluAccesses                     16615857                       # Number of floating point alu accesses (Count)
system.cpu.vecAluAccesses                           0                       # Number of vector alu accesses (Count)
system.cpu.numInsts                          91818604                       # Number of executed instructions (Count)
system.cpu.numLoadInsts                         61677                       # Number of load instructions executed (Count)
system.cpu.numSquashedInsts                     10119                       # Number of squashed instructions skipped in execute (Count)
system.cpu.numSwp                                   0                       # Number of swp insts executed (Count)
system.cpu.numNop                                   0                       # Number of nop insts executed (Count)
system.cpu.numRefs                           24989045                       # Number of memory reference insts executed (Count)
system.cpu.numBranches                        8356530                       # Number of branches executed (Count)
system.cpu.numStoreInsts                     24927368                       # Number of stores executed (Count)
system.cpu.numRate                           0.162618                       # Inst execution rate ((Count/Cycle))
system.cpu.timesIdled                            1100                       # Number of times that the entire CPU went into an idle state and unscheduled itself (Count)
system.cpu.idleCycles                          104368                       # Total number of cycles that the CPU has spent unscheduled due to idling (Cycle)
system.cpu.committedInsts                    50000000                       # Number of Instructions Simulated (Count)
system.cpu.committedOps                      91667295                       # Number of Ops (including micro ops) Simulated (Count)
system.cpu.cpi                              11.292550                       # CPI: Cycles Per Instruction ((Cycle/Count))
system.cpu.totalCpi                         11.292550                       # CPI: Total CPI of All Threads ((Cycle/Count))
system.cpu.ipc                               0.088554                       # IPC: Instructions Per Cycle ((Count/Cycle))
system.cpu.totalIpc                          0.088554                       # IPC: Total IPC of All Threads ((Count/Cycle))
system.cpu.intRegfileReads                  108631217                       # Number of integer regfile reads (Count)
system.cpu.intRegfileWrites                  58522821                       # Number of integer regfile writes (Count)
system.cpu.fpRegfileReads                    16618484                       # Number of floating regfile reads (Count)
system.cpu.fpRegfileWrites                       6682                       # Number of floating regfile writes (Count)
system.cpu.ccRegfileReads                    41778034                       # number of cc regfile reads (Count)
system.cpu.ccRegfileWrites                   33392375                       # number of cc regfile writes (Count)
system.cpu.miscRegfileReads                  41713511                       # number of misc regfile reads (Count)
system.cpu.miscRegfileWrites                       18                       # number of misc regfile writes (Count)
system.cpu.MemDepUnit__0.insertedLoads          68479                       # Number of loads inserted to the mem dependence unit. (Count)
system.cpu.MemDepUnit__0.insertedStores      24929787                       # Number of stores inserted to the mem dependence unit. (Count)
system.cpu.MemDepUnit__0.conflictingLoads            0                       # Number of conflicting loads. (Count)
system.cpu.MemDepUnit__0.conflictingStores            0                       # Number of conflicting stores. (Count)
system.cpu.MemDepUnit__1.insertedLoads              0                       # Number of loads inserted to the mem dependence unit. (Count)
system.cpu.MemDepUnit__1.insertedStores             0                       # Number of stores inserted to the mem dependence unit. (Count)
system.cpu.MemDepUnit__1.conflictingLoads            0                       # Number of conflicting loads. (Count)
system.cpu.MemDepUnit__1.conflictingStores            0                       # Number of conflicting stores. (Count)
system.cpu.MemDepUnit__2.insertedLoads              0                       # Number of loads inserted to the mem dependence unit. (Count)
system.cpu.MemDepUnit__2.insertedStores             0                       # Number of stores inserted to the mem dependence unit. (Count)
system.cpu.MemDepUnit__2.conflictingLoads            0                       # Number of conflicting loads. (Count)
system.cpu.MemDepUnit__2.conflictingStores            0                       # Number of conflicting stores. (Count)
system.cpu.MemDepUnit__3.insertedLoads              0                       # Number of loads inserted to the mem dependence unit. (Count)
system.cpu.MemDepUnit__3.insertedStores             0                       # Number of stores inserted to the mem dependence unit. (Count)
system.cpu.MemDepUnit__3.conflictingLoads            0                       # Number of conflicting loads. (Count)
system.cpu.MemDepUnit__3.conflictingStores            0                       # Number of conflicting stores. (Count)
system.cpu.branchPred.lookups                 8384401                       # Number of BP lookups (Count)
system.cpu.branchPred.condPredicted           8369621                       # Number of conditional branches predicted (Count)
system.cpu.branchPred.condIncorrect              5280                       # Number of conditional branches incorrect (Count)
system.cpu.branchPred.BTBLookups              8334329                       # Number of BTB lookups (Count)
system.cpu.branchPred.BTBHits                 8332139                       # Number of BTB hits (Count)
system.cpu.branchPred.BTBHitRatio            0.999737                       # BTB Hit Ratio (Ratio)
system.cpu.branchPred.RASUsed                    1667                       # Number of times the RAS was used to get a target. (Count)
system.cpu.branchPred.RASIncorrect                  3                       # Number of incorrect RAS predictions. (Count)
system.cpu.branchPred.indirectLookups            1612                       # Number of indirect predictor lookups. (Count)
system.cpu.branchPred.indirectHits                283                       # Number of indirect target hits. (Count)
system.cpu.branchPred.indirectMisses             1329                       # Number of indirect misses. (Count)
system.cpu.branchPred.indirectMispredicted          324                       # Number of mispredicted indirect branches. (Count)
system.cpu.commit.commitSquashedInsts          221056                       # The number of squashed insts skipped by commit (Count)
system.cpu.commit.commitNonSpecStalls              18                       # The number of times commit has been forced to stall to communicate backwards (Count)
system.cpu.commit.branchMispredicts              4889                       # The number of times a branch was mispredicted (Count)
system.cpu.commit.numCommittedDist::samples    564490255                       # Number of insts commited each cycle (Count)
system.cpu.commit.numCommittedDist::mean     0.162390                       # Number of insts commited each cycle (Count)
system.cpu.commit.numCommittedDist::stdev     0.611754                       # Number of insts commited each cycle (Count)
system.cpu.commit.numCommittedDist::underflows            0      0.00%      0.00% # Number of insts commited each cycle (Count)
system.cpu.commit.numCommittedDist::0       521851452     92.45%     92.45% # Number of insts commited each cycle (Count)
system.cpu.commit.numCommittedDist::1         8328480      1.48%     93.92% # Number of insts commited each cycle (Count)
system.cpu.commit.numCommittedDist::2        22842672      4.05%     97.97% # Number of insts commited each cycle (Count)
system.cpu.commit.numCommittedDist::3         8318830      1.47%     99.44% # Number of insts commited each cycle (Count)
system.cpu.commit.numCommittedDist::4         3118780      0.55%     99.99% # Number of insts commited each cycle (Count)
system.cpu.commit.numCommittedDist::5            3739      0.00%    100.00% # Number of insts commited each cycle (Count)
system.cpu.commit.numCommittedDist::6            2726      0.00%    100.00% # Number of insts commited each cycle (Count)
system.cpu.commit.numCommittedDist::7            1798      0.00%    100.00% # Number of insts commited each cycle (Count)
system.cpu.commit.numCommittedDist::8           21778      0.00%    100.00% # Number of insts commited each cycle (Count)
system.cpu.commit.numCommittedDist::overflows            0      0.00%    100.00% # Number of insts commited each cycle (Count)
system.cpu.commit.numCommittedDist::min_value            0                       # Number of insts commited each cycle (Count)
system.cpu.commit.numCommittedDist::max_value            8                       # Number of insts commited each cycle (Count)
system.cpu.commit.numCommittedDist::total    564490255                       # Number of insts commited each cycle (Count)
system.cpu.commit.instsCommitted             50000000                       # Number of instructions committed (Count)
system.cpu.commit.opsCommitted               91667295                       # Number of ops (including micro ops) committed (Count)
system.cpu.commit.memRefs                    24964978                       # Number of memory references committed (Count)
system.cpu.commit.loads                         41889                       # Number of loads committed (Count)
system.cpu.commit.amos                              0                       # Number of atomic instructions committed (Count)
system.cpu.commit.membars                           0                       # Number of memory barriers committed (Count)
system.cpu.commit.branches                    8343953                       # Number of branches committed (Count)
system.cpu.commit.vectorInstructions                0                       # Number of committed Vector instructions. (Count)
system.cpu.commit.floating                   16612671                       # Number of committed floating point instructions. (Count)
system.cpu.commit.integer                    91661774                       # Number of committed integer instructions. (Count)
system.cpu.commit.functionCalls                   965                       # Number of function calls committed. (Count)
system.cpu.commit.committedInstType_0::No_OpClass         1369      0.00%      0.00% # Class of committed instruction (Count)
system.cpu.commit.committedInstType_0::IntAlu     66695816     72.76%     72.76% # Class of committed instruction (Count)
system.cpu.commit.committedInstType_0::IntMult           44      0.00%     72.76% # Class of committed instruction (Count)
system.cpu.commit.committedInstType_0::IntDiv         1415      0.00%     72.76% # Class of committed instruction (Count)
system.cpu.commit.committedInstType_0::FloatAdd          397      0.00%     72.76% # Class of committed instruction (Count)
system.cpu.commit.committedInstType_0::FloatCmp            0      0.00%     72.76% # Class of committed instruction (Count)
system.cpu.commit.committedInstType_0::FloatCvt           32      0.00%     72.76% # Class of committed instruction (Count)
system.cpu.commit.committedInstType_0::FloatMult            0      0.00%     72.76% # Class of committed instruction (Count)
system.cpu.commit.committedInstType_0::FloatMultAcc            0      0.00%     72.76% # Class of committed instruction (Count)
system.cpu.commit.committedInstType_0::FloatDiv            0      0.00%     72.76% # Class of committed instruction (Count)
system.cpu.commit.committedInstType_0::FloatMisc            0      0.00%     72.76% # Class of committed instruction (Count)
system.cpu.commit.committedInstType_0::FloatSqrt            0      0.00%     72.76% # Class of committed instruction (Count)
system.cpu.commit.committedInstType_0::SimdAdd          330      0.00%     72.76% # Class of committed instruction (Count)
system.cpu.commit.committedInstType_0::SimdAddAcc            0      0.00%     72.76% # Class of committed instruction (Count)
system.cpu.commit.committedInstType_0::SimdAlu          853      0.00%     72.76% # Class of committed instruction (Count)
system.cpu.commit.committedInstType_0::SimdCmp            6      0.00%     72.76% # Class of committed instruction (Count)
system.cpu.commit.committedInstType_0::SimdCvt          908      0.00%     72.76% # Class of committed instruction (Count)
system.cpu.commit.committedInstType_0::SimdMisc         1022      0.00%     72.77% # Class of committed instruction (Count)
system.cpu.commit.committedInstType_0::SimdMult            0      0.00%     72.77% # Class of committed instruction (Count)
system.cpu.commit.committedInstType_0::SimdMultAcc            0      0.00%     72.77% # Class of committed instruction (Count)
system.cpu.commit.committedInstType_0::SimdShift          117      0.00%     72.77% # Class of committed instruction (Count)
system.cpu.commit.committedInstType_0::SimdShiftAcc            0      0.00%     72.77% # Class of committed instruction (Count)
system.cpu.commit.committedInstType_0::SimdDiv            0      0.00%     72.77% # Class of committed instruction (Count)
system.cpu.commit.committedInstType_0::SimdSqrt            0      0.00%     72.77% # Class of committed instruction (Count)
system.cpu.commit.committedInstType_0::SimdFloatAdd            0      0.00%     72.77% # Class of committed instruction (Count)
system.cpu.commit.committedInstType_0::SimdFloatAlu            0      0.00%     72.77% # Class of committed instruction (Count)
system.cpu.commit.committedInstType_0::SimdFloatCmp            0      0.00%     72.77% # Class of committed instruction (Count)
system.cpu.commit.committedInstType_0::SimdFloatCvt            8      0.00%     72.77% # Class of committed instruction (Count)
system.cpu.commit.committedInstType_0::SimdFloatDiv            0      0.00%     72.77% # Class of committed instruction (Count)
system.cpu.commit.committedInstType_0::SimdFloatMisc            0      0.00%     72.77% # Class of committed instruction (Count)
system.cpu.commit.committedInstType_0::SimdFloatMult            0      0.00%     72.77% # Class of committed instruction (Count)
system.cpu.commit.committedInstType_0::SimdFloatMultAcc            0      0.00%     72.77% # Class of committed instruction (Count)
system.cpu.commit.committedInstType_0::SimdFloatSqrt            0      0.00%     72.77% # Class of committed instruction (Count)
system.cpu.commit.committedInstType_0::SimdReduceAdd            0      0.00%     72.77% # Class of committed instruction (Count)
system.cpu.commit.committedInstType_0::SimdReduceAlu            0      0.00%     72.77% # Class of committed instruction (Count)
system.cpu.commit.committedInstType_0::SimdReduceCmp            0      0.00%     72.77% # Class of committed instruction (Count)
system.cpu.commit.committedInstType_0::SimdFloatReduceAdd            0      0.00%     72.77% # Class of committed instruction (Count)
system.cpu.commit.committedInstType_0::SimdFloatReduceCmp            0      0.00%     72.77% # Class of committed instruction (Count)
system.cpu.commit.committedInstType_0::SimdAes            0      0.00%     72.77% # Class of committed instruction (Count)
system.cpu.commit.committedInstType_0::SimdAesMix            0      0.00%     72.77% # Class of committed instruction (Count)
system.cpu.commit.committedInstType_0::SimdSha1Hash            0      0.00%     72.77% # Class of committed instruction (Count)
system.cpu.commit.committedInstType_0::SimdSha1Hash2            0      0.00%     72.77% # Class of committed instruction (Count)
system.cpu.commit.committedInstType_0::SimdSha256Hash            0      0.00%     72.77% # Class of committed instruction (Count)
system.cpu.commit.committedInstType_0::SimdSha256Hash2            0      0.00%     72.77% # Class of committed instruction (Count)
system.cpu.commit.committedInstType_0::SimdShaSigma2            0      0.00%     72.77% # Class of committed instruction (Count)
system.cpu.commit.committedInstType_0::SimdShaSigma3            0      0.00%     72.77% # Class of committed instruction (Count)
system.cpu.commit.committedInstType_0::SimdPredAlu            0      0.00%     72.77% # Class of committed instruction (Count)
system.cpu.commit.committedInstType_0::MemRead        40783      0.04%     72.81% # Class of committed instruction (Count)
system.cpu.commit.committedInstType_0::MemWrite      8315552      9.07%     81.88% # Class of committed instruction (Count)
system.cpu.commit.committedInstType_0::FloatMemRead         1106      0.00%     81.88% # Class of committed instruction (Count)
system.cpu.commit.committedInstType_0::FloatMemWrite     16607537     18.12%    100.00% # Class of committed instruction (Count)
system.cpu.commit.committedInstType_0::IprAccess            0      0.00%    100.00% # Class of committed instruction (Count)
system.cpu.commit.committedInstType_0::InstPrefetch            0      0.00%    100.00% # Class of committed instruction (Count)
system.cpu.commit.committedInstType_0::total     91667295                       # Class of committed instruction (Count)
system.cpu.commit.commitEligibleSamples         21778                       # number cycles where commit BW limit reached (Cycle)
system.cpu.dcache.demandHits::cpu.data       21853394                       # number of demand (read+write) hits (Count)
system.cpu.dcache.demandHits::total          21853394                       # number of demand (read+write) hits (Count)
system.cpu.dcache.overallHits::cpu.data      21853394                       # number of overall hits (Count)
system.cpu.dcache.overallHits::total         21853394                       # number of overall hits (Count)
system.cpu.dcache.demandMisses::cpu.data      3127363                       # number of demand (read+write) misses (Count)
system.cpu.dcache.demandMisses::total         3127363                       # number of demand (read+write) misses (Count)
system.cpu.dcache.overallMisses::cpu.data      3127363                       # number of overall misses (Count)
system.cpu.dcache.overallMisses::total        3127363                       # number of overall misses (Count)
system.cpu.dcache.demandMissLatency::cpu.data 261084910997                       # number of demand (read+write) miss ticks (Tick)
system.cpu.dcache.demandMissLatency::total 261084910997                       # number of demand (read+write) miss ticks (Tick)
system.cpu.dcache.overallMissLatency::cpu.data 261084910997                       # number of overall miss ticks (Tick)
system.cpu.dcache.overallMissLatency::total 261084910997                       # number of overall miss ticks (Tick)
system.cpu.dcache.demandAccesses::cpu.data     24980757                       # number of demand (read+write) accesses (Count)
system.cpu.dcache.demandAccesses::total      24980757                       # number of demand (read+write) accesses (Count)
system.cpu.dcache.overallAccesses::cpu.data     24980757                       # number of overall (read+write) accesses (Count)
system.cpu.dcache.overallAccesses::total     24980757                       # number of overall (read+write) accesses (Count)
system.cpu.dcache.demandMissRate::cpu.data     0.125191                       # miss rate for demand accesses (Ratio)
system.cpu.dcache.demandMissRate::total      0.125191                       # miss rate for demand accesses (Ratio)
system.cpu.dcache.overallMissRate::cpu.data     0.125191                       # miss rate for overall accesses (Ratio)
system.cpu.dcache.overallMissRate::total     0.125191                       # miss rate for overall accesses (Ratio)
system.cpu.dcache.demandAvgMissLatency::cpu.data 83484.044224                       # average overall miss latency ((Cycle/Count))
system.cpu.dcache.demandAvgMissLatency::total 83484.044224                       # average overall miss latency ((Cycle/Count))
system.cpu.dcache.overallAvgMissLatency::cpu.data 83484.044224                       # average overall miss latency ((Cycle/Count))
system.cpu.dcache.overallAvgMissLatency::total 83484.044224                       # average overall miss latency ((Cycle/Count))
system.cpu.dcache.blockedCycles::no_mshrs        17738                       # number of cycles access was blocked (Cycle)
system.cpu.dcache.blockedCycles::no_targets            0                       # number of cycles access was blocked (Cycle)
system.cpu.dcache.blockedCauses::no_mshrs          366                       # number of times access was blocked (Count)
system.cpu.dcache.blockedCauses::no_targets            0                       # number of times access was blocked (Count)
system.cpu.dcache.avgBlocked::no_mshrs      48.464481                       # average number of cycles each access was blocked ((Cycle/Count))
system.cpu.dcache.avgBlocked::no_targets          nan                       # average number of cycles each access was blocked ((Cycle/Count))
system.cpu.dcache.writebacks::writebacks      3114408                       # number of writebacks (Count)
system.cpu.dcache.writebacks::total           3114408                       # number of writebacks (Count)
system.cpu.dcache.demandMshrHits::cpu.data        10206                       # number of demand (read+write) MSHR hits (Count)
system.cpu.dcache.demandMshrHits::total         10206                       # number of demand (read+write) MSHR hits (Count)
system.cpu.dcache.overallMshrHits::cpu.data        10206                       # number of overall MSHR hits (Count)
system.cpu.dcache.overallMshrHits::total        10206                       # number of overall MSHR hits (Count)
system.cpu.dcache.demandMshrMisses::cpu.data      3117157                       # number of demand (read+write) MSHR misses (Count)
system.cpu.dcache.demandMshrMisses::total      3117157                       # number of demand (read+write) MSHR misses (Count)
system.cpu.dcache.overallMshrMisses::cpu.data      3117157                       # number of overall MSHR misses (Count)
system.cpu.dcache.overallMshrMisses::total      3117157                       # number of overall MSHR misses (Count)
system.cpu.dcache.demandMshrMissLatency::cpu.data 257378227997                       # number of demand (read+write) MSHR miss ticks (Tick)
system.cpu.dcache.demandMshrMissLatency::total 257378227997                       # number of demand (read+write) MSHR miss ticks (Tick)
system.cpu.dcache.overallMshrMissLatency::cpu.data 257378227997                       # number of overall MSHR miss ticks (Tick)
system.cpu.dcache.overallMshrMissLatency::total 257378227997                       # number of overall MSHR miss ticks (Tick)
system.cpu.dcache.demandMshrMissRate::cpu.data     0.124782                       # mshr miss ratio for demand accesses (Ratio)
system.cpu.dcache.demandMshrMissRate::total     0.124782                       # mshr miss ratio for demand accesses (Ratio)
system.cpu.dcache.overallMshrMissRate::cpu.data     0.124782                       # mshr miss ratio for overall accesses (Ratio)
system.cpu.dcache.overallMshrMissRate::total     0.124782                       # mshr miss ratio for overall accesses (Ratio)
system.cpu.dcache.demandAvgMshrMissLatency::cpu.data 82568.259474                       # average overall mshr miss latency ((Cycle/Count))
system.cpu.dcache.demandAvgMshrMissLatency::total 82568.259474                       # average overall mshr miss latency ((Cycle/Count))
system.cpu.dcache.overallAvgMshrMissLatency::cpu.data 82568.259474                       # average overall mshr miss latency ((Cycle/Count))
system.cpu.dcache.overallAvgMshrMissLatency::total 82568.259474                       # average overall mshr miss latency ((Cycle/Count))
system.cpu.dcache.replacements                3116900                       # number of replacements (Count)
system.cpu.dcache.ReadReq.hits::cpu.data        44619                       # number of ReadReq hits (Count)
system.cpu.dcache.ReadReq.hits::total           44619                       # number of ReadReq hits (Count)
system.cpu.dcache.ReadReq.misses::cpu.data        13067                       # number of ReadReq misses (Count)
system.cpu.dcache.ReadReq.misses::total         13067                       # number of ReadReq misses (Count)
system.cpu.dcache.ReadReq.missLatency::cpu.data    772777500                       # number of ReadReq miss ticks (Tick)
system.cpu.dcache.ReadReq.missLatency::total    772777500                       # number of ReadReq miss ticks (Tick)
system.cpu.dcache.ReadReq.accesses::cpu.data        57686                       # number of ReadReq accesses(hits+misses) (Count)
system.cpu.dcache.ReadReq.accesses::total        57686                       # number of ReadReq accesses(hits+misses) (Count)
system.cpu.dcache.ReadReq.missRate::cpu.data     0.226519                       # miss rate for ReadReq accesses (Ratio)
system.cpu.dcache.ReadReq.missRate::total     0.226519                       # miss rate for ReadReq accesses (Ratio)
system.cpu.dcache.ReadReq.avgMissLatency::cpu.data 59139.626540                       # average ReadReq miss latency ((Tick/Count))
system.cpu.dcache.ReadReq.avgMissLatency::total 59139.626540                       # average ReadReq miss latency ((Tick/Count))
system.cpu.dcache.ReadReq.mshrHits::cpu.data        10203                       # number of ReadReq MSHR hits (Count)
system.cpu.dcache.ReadReq.mshrHits::total        10203                       # number of ReadReq MSHR hits (Count)
system.cpu.dcache.ReadReq.mshrMisses::cpu.data         2864                       # number of ReadReq MSHR misses (Count)
system.cpu.dcache.ReadReq.mshrMisses::total         2864                       # number of ReadReq MSHR misses (Count)
system.cpu.dcache.ReadReq.mshrMissLatency::cpu.data    180848000                       # number of ReadReq MSHR miss ticks (Tick)
system.cpu.dcache.ReadReq.mshrMissLatency::total    180848000                       # number of ReadReq MSHR miss ticks (Tick)
system.cpu.dcache.ReadReq.mshrMissRate::cpu.data     0.049648                       # mshr miss rate for ReadReq accesses (Ratio)
system.cpu.dcache.ReadReq.mshrMissRate::total     0.049648                       # mshr miss rate for ReadReq accesses (Ratio)
system.cpu.dcache.ReadReq.avgMshrMissLatency::cpu.data 63145.251397                       # average ReadReq mshr miss latency ((Tick/Count))
system.cpu.dcache.ReadReq.avgMshrMissLatency::total 63145.251397                       # average ReadReq mshr miss latency ((Tick/Count))
system.cpu.dcache.WriteReq.hits::cpu.data     21808775                       # number of WriteReq hits (Count)
system.cpu.dcache.WriteReq.hits::total       21808775                       # number of WriteReq hits (Count)
system.cpu.dcache.WriteReq.misses::cpu.data      3114296                       # number of WriteReq misses (Count)
system.cpu.dcache.WriteReq.misses::total      3114296                       # number of WriteReq misses (Count)
system.cpu.dcache.WriteReq.missLatency::cpu.data 260312133497                       # number of WriteReq miss ticks (Tick)
system.cpu.dcache.WriteReq.missLatency::total 260312133497                       # number of WriteReq miss ticks (Tick)
system.cpu.dcache.WriteReq.accesses::cpu.data     24923071                       # number of WriteReq accesses(hits+misses) (Count)
system.cpu.dcache.WriteReq.accesses::total     24923071                       # number of WriteReq accesses(hits+misses) (Count)
system.cpu.dcache.WriteReq.missRate::cpu.data     0.124956                       # miss rate for WriteReq accesses (Ratio)
system.cpu.dcache.WriteReq.missRate::total     0.124956                       # miss rate for WriteReq accesses (Ratio)
system.cpu.dcache.WriteReq.avgMissLatency::cpu.data 83586.188820                       # average WriteReq miss latency ((Tick/Count))
system.cpu.dcache.WriteReq.avgMissLatency::total 83586.188820                       # average WriteReq miss latency ((Tick/Count))
system.cpu.dcache.WriteReq.mshrHits::cpu.data            3                       # number of WriteReq MSHR hits (Count)
system.cpu.dcache.WriteReq.mshrHits::total            3                       # number of WriteReq MSHR hits (Count)
system.cpu.dcache.WriteReq.mshrMisses::cpu.data      3114293                       # number of WriteReq MSHR misses (Count)
system.cpu.dcache.WriteReq.mshrMisses::total      3114293                       # number of WriteReq MSHR misses (Count)
system.cpu.dcache.WriteReq.mshrMissLatency::cpu.data 257197379997                       # number of WriteReq MSHR miss ticks (Tick)
system.cpu.dcache.WriteReq.mshrMissLatency::total 257197379997                       # number of WriteReq MSHR miss ticks (Tick)
system.cpu.dcache.WriteReq.mshrMissRate::cpu.data     0.124956                       # mshr miss rate for WriteReq accesses (Ratio)
system.cpu.dcache.WriteReq.mshrMissRate::total     0.124956                       # mshr miss rate for WriteReq accesses (Ratio)
system.cpu.dcache.WriteReq.avgMshrMissLatency::cpu.data 82586.121472                       # average WriteReq mshr miss latency ((Tick/Count))
system.cpu.dcache.WriteReq.avgMshrMissLatency::total 82586.121472                       # average WriteReq mshr miss latency ((Tick/Count))
system.cpu.dcache.power_state.pwrStateResidencyTicks::UNDEFINED 282313751500                       # Cumulative time (in ticks) in various power states (Tick)
system.cpu.dcache.tags.tagsInUse           255.985326                       # Average ticks per tags in use ((Tick/Count))
system.cpu.dcache.tags.totalRefs             24970551                       # Total number of references to valid blocks. (Count)
system.cpu.dcache.tags.sampledRefs            3117156                       # Sample count of references to valid blocks. (Count)
system.cpu.dcache.tags.avgRefs               8.010684                       # Average number of references to valid blocks. ((Count/Count))
system.cpu.dcache.tags.warmupTick              179500                       # The tick when the warmup percentage was hit. (Tick)
system.cpu.dcache.tags.occupancies::cpu.data   255.985326                       # Average occupied blocks per tick, per requestor ((Count/Tick))
system.cpu.dcache.tags.avgOccs::cpu.data     0.999943                       # Average percentage of cache occupancy ((Ratio/Tick))
system.cpu.dcache.tags.avgOccs::total        0.999943                       # Average percentage of cache occupancy ((Ratio/Tick))
system.cpu.dcache.tags.occupanciesTaskId::1024          256                       # Occupied blocks per task id (Count)
system.cpu.dcache.tags.ageTaskId_1024::0          111                       # Occupied blocks per task id, per block age (Count)
system.cpu.dcache.tags.ageTaskId_1024::1          145                       # Occupied blocks per task id, per block age (Count)
system.cpu.dcache.tags.ratioOccsTaskId::1024            1                       # Ratio of occupied blocks and all blocks, per task id (Ratio)
system.cpu.dcache.tags.tagAccesses           53078670                       # Number of tag accesses (Count)
system.cpu.dcache.tags.dataAccesses          53078670                       # Number of data accesses (Count)
system.cpu.dcache.tags.power_state.pwrStateResidencyTicks::UNDEFINED 282313751500                       # Cumulative time (in ticks) in various power states (Tick)
system.cpu.decode.idleCycles                  3201311                       # Number of cycles decode is idle (Cycle)
system.cpu.decode.blockedCycles             549806478                       # Number of cycles decode is blocked (Cycle)
system.cpu.decode.runCycles                   2157675                       # Number of cycles decode is running (Cycle)
system.cpu.decode.unblockCycles               9352349                       # Number of cycles decode is unblocking (Cycle)
system.cpu.decode.squashCycles                   5323                       # Number of cycles decode is squashing (Cycle)
system.cpu.decode.branchResolved              8330405                       # Number of times decode resolved a branch (Count)
system.cpu.decode.branchMispred                   624                       # Number of times decode detected a branch misprediction (Count)
system.cpu.decode.decodedInsts               91943213                       # Number of instructions handled by decode (Count)
system.cpu.decode.squashedInsts                  2781                       # Number of squashed instructions handled by decode (Count)
system.cpu.dtb_walker_cache.blockedCycles::no_mshrs            0                       # number of cycles access was blocked (Cycle)
system.cpu.dtb_walker_cache.blockedCycles::no_targets            0                       # number of cycles access was blocked (Cycle)
system.cpu.dtb_walker_cache.blockedCauses::no_mshrs            0                       # number of times access was blocked (Count)
system.cpu.dtb_walker_cache.blockedCauses::no_targets            0                       # number of times access was blocked (Count)
system.cpu.dtb_walker_cache.avgBlocked::no_mshrs          nan                       # average number of cycles each access was blocked ((Cycle/Count))
system.cpu.dtb_walker_cache.avgBlocked::no_targets          nan                       # average number of cycles each access was blocked ((Cycle/Count))
system.cpu.dtb_walker_cache.replacements            0                       # number of replacements (Count)
system.cpu.dtb_walker_cache.power_state.pwrStateResidencyTicks::UNDEFINED 282313751500                       # Cumulative time (in ticks) in various power states (Tick)
system.cpu.dtb_walker_cache.tags.tagsInUse            0                       # Average ticks per tags in use ((Tick/Count))
system.cpu.dtb_walker_cache.tags.totalRefs            0                       # Total number of references to valid blocks. (Count)
system.cpu.dtb_walker_cache.tags.sampledRefs            0                       # Sample count of references to valid blocks. (Count)
system.cpu.dtb_walker_cache.tags.avgRefs          nan                       # Average number of references to valid blocks. ((Count/Count))
system.cpu.dtb_walker_cache.tags.warmupTick            0                       # The tick when the warmup percentage was hit. (Tick)
system.cpu.dtb_walker_cache.tags.tagAccesses            0                       # Number of tag accesses (Count)
system.cpu.dtb_walker_cache.tags.dataAccesses            0                       # Number of data accesses (Count)
system.cpu.dtb_walker_cache.tags.power_state.pwrStateResidencyTicks::UNDEFINED 282313751500                       # Cumulative time (in ticks) in various power states (Tick)
system.cpu.fetch.icacheStallCycles             100569                       # Number of cycles fetch is stalled on an Icache miss (Cycle)
system.cpu.fetch.insts                       50181174                       # Number of instructions fetch has processed (Count)
system.cpu.fetch.branches                     8384401                       # Number of branches that fetch encountered (Count)
system.cpu.fetch.predictedBranches            8334089                       # Number of branches that fetch has predicted taken (Count)
system.cpu.fetch.cycles                     564414452                       # Number of cycles fetch has run and was not squashing or blocked (Cycle)
system.cpu.fetch.squashCycles                   11874                       # Number of cycles fetch has spent squashing (Cycle)
system.cpu.fetch.miscStallCycles                  255                       # Number of cycles fetch has spent waiting on interrupts, or bad addresses, or out of MSHRs (Cycle)
system.cpu.fetch.pendingTrapStallCycles          1837                       # Number of stall cycles due to pending traps (Cycle)
system.cpu.fetch.pendingQuiesceStallCycles           59                       # Number of stall cycles due to pending quiesce instructions (Cycle)
system.cpu.fetch.icacheWaitRetryStallCycles           27                       # Number of stall cycles due to full MSHR (Cycle)
system.cpu.fetch.cacheLines                     49082                       # Number of cache lines fetched (Count)
system.cpu.fetch.icacheSquashes                  2234                       # Number of outstanding Icache misses that were squashed (Count)
system.cpu.fetch.nisnDist::samples          564523136                       # Number of instructions fetched each cycle (Total) (Count)
system.cpu.fetch.nisnDist::mean              0.162965                       # Number of instructions fetched each cycle (Total) (Count)
system.cpu.fetch.nisnDist::stdev             1.012988                       # Number of instructions fetched each cycle (Total) (Count)
system.cpu.fetch.nisnDist::underflows               0      0.00%      0.00% # Number of instructions fetched each cycle (Total) (Count)
system.cpu.fetch.nisnDist::0                545729824     96.67%     96.67% # Number of instructions fetched each cycle (Total) (Count)
system.cpu.fetch.nisnDist::1                  2085981      0.37%     97.04% # Number of instructions fetched each cycle (Total) (Count)
system.cpu.fetch.nisnDist::2                  2090647      0.37%     97.41% # Number of instructions fetched each cycle (Total) (Count)
system.cpu.fetch.nisnDist::3                  5192474      0.92%     98.33% # Number of instructions fetched each cycle (Total) (Count)
system.cpu.fetch.nisnDist::4                  1043580      0.18%     98.52% # Number of instructions fetched each cycle (Total) (Count)
system.cpu.fetch.nisnDist::5                     4756      0.00%     98.52% # Number of instructions fetched each cycle (Total) (Count)
system.cpu.fetch.nisnDist::6                     3676      0.00%     98.52% # Number of instructions fetched each cycle (Total) (Count)
system.cpu.fetch.nisnDist::7                  1045043      0.19%     98.70% # Number of instructions fetched each cycle (Total) (Count)
system.cpu.fetch.nisnDist::8                  7327155      1.30%    100.00% # Number of instructions fetched each cycle (Total) (Count)
system.cpu.fetch.nisnDist::overflows                0      0.00%    100.00% # Number of instructions fetched each cycle (Total) (Count)
system.cpu.fetch.nisnDist::min_value                0                       # Number of instructions fetched each cycle (Total) (Count)
system.cpu.fetch.nisnDist::max_value                8                       # Number of instructions fetched each cycle (Total) (Count)
system.cpu.fetch.nisnDist::total            564523136                       # Number of instructions fetched each cycle (Total) (Count)
system.cpu.fetch.branchRate                  0.014849                       # Number of branch fetches per cycle (Ratio)
system.cpu.fetch.rate                        0.088875                       # Number of inst fetches per cycle ((Count/Cycle))
system.cpu.icache.demandHits::cpu.inst          46825                       # number of demand (read+write) hits (Count)
system.cpu.icache.demandHits::total             46825                       # number of demand (read+write) hits (Count)
system.cpu.icache.overallHits::cpu.inst         46825                       # number of overall hits (Count)
system.cpu.icache.overallHits::total            46825                       # number of overall hits (Count)
system.cpu.icache.demandMisses::cpu.inst         2257                       # number of demand (read+write) misses (Count)
system.cpu.icache.demandMisses::total            2257                       # number of demand (read+write) misses (Count)
system.cpu.icache.overallMisses::cpu.inst         2257                       # number of overall misses (Count)
system.cpu.icache.overallMisses::total           2257                       # number of overall misses (Count)
system.cpu.icache.demandMissLatency::cpu.inst    140949500                       # number of demand (read+write) miss ticks (Tick)
system.cpu.icache.demandMissLatency::total    140949500                       # number of demand (read+write) miss ticks (Tick)
system.cpu.icache.overallMissLatency::cpu.inst    140949500                       # number of overall miss ticks (Tick)
system.cpu.icache.overallMissLatency::total    140949500                       # number of overall miss ticks (Tick)
system.cpu.icache.demandAccesses::cpu.inst        49082                       # number of demand (read+write) accesses (Count)
system.cpu.icache.demandAccesses::total         49082                       # number of demand (read+write) accesses (Count)
system.cpu.icache.overallAccesses::cpu.inst        49082                       # number of overall (read+write) accesses (Count)
system.cpu.icache.overallAccesses::total        49082                       # number of overall (read+write) accesses (Count)
system.cpu.icache.demandMissRate::cpu.inst     0.045984                       # miss rate for demand accesses (Ratio)
system.cpu.icache.demandMissRate::total      0.045984                       # miss rate for demand accesses (Ratio)
system.cpu.icache.overallMissRate::cpu.inst     0.045984                       # miss rate for overall accesses (Ratio)
system.cpu.icache.overallMissRate::total     0.045984                       # miss rate for overall accesses (Ratio)
system.cpu.icache.demandAvgMissLatency::cpu.inst 62449.933540                       # average overall miss latency ((Cycle/Count))
system.cpu.icache.demandAvgMissLatency::total 62449.933540                       # average overall miss latency ((Cycle/Count))
system.cpu.icache.overallAvgMissLatency::cpu.inst 62449.933540                       # average overall miss latency ((Cycle/Count))
system.cpu.icache.overallAvgMissLatency::total 62449.933540                       # average overall miss latency ((Cycle/Count))
system.cpu.icache.blockedCycles::no_mshrs          592                       # number of cycles access was blocked (Cycle)
system.cpu.icache.blockedCycles::no_targets            0                       # number of cycles access was blocked (Cycle)
system.cpu.icache.blockedCauses::no_mshrs            8                       # number of times access was blocked (Count)
system.cpu.icache.blockedCauses::no_targets            0                       # number of times access was blocked (Count)
system.cpu.icache.avgBlocked::no_mshrs             74                       # average number of cycles each access was blocked ((Cycle/Count))
system.cpu.icache.avgBlocked::no_targets          nan                       # average number of cycles each access was blocked ((Cycle/Count))
system.cpu.icache.writebacks::writebacks         1516                       # number of writebacks (Count)
system.cpu.icache.writebacks::total              1516                       # number of writebacks (Count)
system.cpu.icache.demandMshrHits::cpu.inst          484                       # number of demand (read+write) MSHR hits (Count)
system.cpu.icache.demandMshrHits::total           484                       # number of demand (read+write) MSHR hits (Count)
system.cpu.icache.overallMshrHits::cpu.inst          484                       # number of overall MSHR hits (Count)
system.cpu.icache.overallMshrHits::total          484                       # number of overall MSHR hits (Count)
system.cpu.icache.demandMshrMisses::cpu.inst         1773                       # number of demand (read+write) MSHR misses (Count)
system.cpu.icache.demandMshrMisses::total         1773                       # number of demand (read+write) MSHR misses (Count)
system.cpu.icache.overallMshrMisses::cpu.inst         1773                       # number of overall MSHR misses (Count)
system.cpu.icache.overallMshrMisses::total         1773                       # number of overall MSHR misses (Count)
system.cpu.icache.demandMshrMissLatency::cpu.inst    112382500                       # number of demand (read+write) MSHR miss ticks (Tick)
system.cpu.icache.demandMshrMissLatency::total    112382500                       # number of demand (read+write) MSHR miss ticks (Tick)
system.cpu.icache.overallMshrMissLatency::cpu.inst    112382500                       # number of overall MSHR miss ticks (Tick)
system.cpu.icache.overallMshrMissLatency::total    112382500                       # number of overall MSHR miss ticks (Tick)
system.cpu.icache.demandMshrMissRate::cpu.inst     0.036123                       # mshr miss ratio for demand accesses (Ratio)
system.cpu.icache.demandMshrMissRate::total     0.036123                       # mshr miss ratio for demand accesses (Ratio)
system.cpu.icache.overallMshrMissRate::cpu.inst     0.036123                       # mshr miss ratio for overall accesses (Ratio)
system.cpu.icache.overallMshrMissRate::total     0.036123                       # mshr miss ratio for overall accesses (Ratio)
system.cpu.icache.demandAvgMshrMissLatency::cpu.inst 63385.504794                       # average overall mshr miss latency ((Cycle/Count))
system.cpu.icache.demandAvgMshrMissLatency::total 63385.504794                       # average overall mshr miss latency ((Cycle/Count))
system.cpu.icache.overallAvgMshrMissLatency::cpu.inst 63385.504794                       # average overall mshr miss latency ((Cycle/Count))
system.cpu.icache.overallAvgMshrMissLatency::total 63385.504794                       # average overall mshr miss latency ((Cycle/Count))
system.cpu.icache.replacements                   1516                       # number of replacements (Count)
system.cpu.icache.ReadReq.hits::cpu.inst        46825                       # number of ReadReq hits (Count)
system.cpu.icache.ReadReq.hits::total           46825                       # number of ReadReq hits (Count)
system.cpu.icache.ReadReq.misses::cpu.inst         2257                       # number of ReadReq misses (Count)
system.cpu.icache.ReadReq.misses::total          2257                       # number of ReadReq misses (Count)
system.cpu.icache.ReadReq.missLatency::cpu.inst    140949500                       # number of ReadReq miss ticks (Tick)
system.cpu.icache.ReadReq.missLatency::total    140949500                       # number of ReadReq miss ticks (Tick)
system.cpu.icache.ReadReq.accesses::cpu.inst        49082                       # number of ReadReq accesses(hits+misses) (Count)
system.cpu.icache.ReadReq.accesses::total        49082                       # number of ReadReq accesses(hits+misses) (Count)
system.cpu.icache.ReadReq.missRate::cpu.inst     0.045984                       # miss rate for ReadReq accesses (Ratio)
system.cpu.icache.ReadReq.missRate::total     0.045984                       # miss rate for ReadReq accesses (Ratio)
system.cpu.icache.ReadReq.avgMissLatency::cpu.inst 62449.933540                       # average ReadReq miss latency ((Tick/Count))
system.cpu.icache.ReadReq.avgMissLatency::total 62449.933540                       # average ReadReq miss latency ((Tick/Count))
system.cpu.icache.ReadReq.mshrHits::cpu.inst          484                       # number of ReadReq MSHR hits (Count)
system.cpu.icache.ReadReq.mshrHits::total          484                       # number of ReadReq MSHR hits (Count)
system.cpu.icache.ReadReq.mshrMisses::cpu.inst         1773                       # number of ReadReq MSHR misses (Count)
system.cpu.icache.ReadReq.mshrMisses::total         1773                       # number of ReadReq MSHR misses (Count)
system.cpu.icache.ReadReq.mshrMissLatency::cpu.inst    112382500                       # number of ReadReq MSHR miss ticks (Tick)
system.cpu.icache.ReadReq.mshrMissLatency::total    112382500                       # number of ReadReq MSHR miss ticks (Tick)
system.cpu.icache.ReadReq.mshrMissRate::cpu.inst     0.036123                       # mshr miss rate for ReadReq accesses (Ratio)
system.cpu.icache.ReadReq.mshrMissRate::total     0.036123                       # mshr miss rate for ReadReq accesses (Ratio)
system.cpu.icache.ReadReq.avgMshrMissLatency::cpu.inst 63385.504794                       # average ReadReq mshr miss latency ((Tick/Count))
system.cpu.icache.ReadReq.avgMshrMissLatency::total 63385.504794                       # average ReadReq mshr miss latency ((Tick/Count))
system.cpu.icache.power_state.pwrStateResidencyTicks::UNDEFINED 282313751500                       # Cumulative time (in ticks) in various power states (Tick)
system.cpu.icache.tags.tagsInUse           255.988410                       # Average ticks per tags in use ((Tick/Count))
system.cpu.icache.tags.totalRefs                48598                       # Total number of references to valid blocks. (Count)
system.cpu.icache.tags.sampledRefs               1773                       # Sample count of references to valid blocks. (Count)
system.cpu.icache.tags.avgRefs              27.410039                       # Average number of references to valid blocks. ((Count/Count))
system.cpu.icache.tags.warmupTick               87500                       # The tick when the warmup percentage was hit. (Tick)
system.cpu.icache.tags.occupancies::cpu.inst   255.988410                       # Average occupied blocks per tick, per requestor ((Count/Tick))
system.cpu.icache.tags.avgOccs::cpu.inst     0.999955                       # Average percentage of cache occupancy ((Ratio/Tick))
system.cpu.icache.tags.avgOccs::total        0.999955                       # Average percentage of cache occupancy ((Ratio/Tick))
system.cpu.icache.tags.occupanciesTaskId::1024          256                       # Occupied blocks per task id (Count)
system.cpu.icache.tags.ageTaskId_1024::4          256                       # Occupied blocks per task id, per block age (Count)
system.cpu.icache.tags.ratioOccsTaskId::1024            1                       # Ratio of occupied blocks and all blocks, per task id (Ratio)
system.cpu.icache.tags.tagAccesses              99937                       # Number of tag accesses (Count)
system.cpu.icache.tags.dataAccesses             99937                       # Number of data accesses (Count)
system.cpu.icache.tags.power_state.pwrStateResidencyTicks::UNDEFINED 282313751500                       # Cumulative time (in ticks) in various power states (Tick)
system.cpu.iew.idleCycles                           0                       # Number of cycles IEW is idle (Cycle)
system.cpu.iew.squashCycles                      5323                       # Number of cycles IEW is squashing (Cycle)
system.cpu.iew.blockCycles                      97654                       # Number of cycles IEW is blocking (Cycle)
system.cpu.iew.unblockCycles                168553928                       # Number of cycles IEW is unblocking (Cycle)
system.cpu.iew.dispatchedInsts               91889983                       # Number of instructions dispatched to IQ (Count)
system.cpu.iew.dispSquashedInsts                  378                       # Number of squashed instructions skipped by dispatch (Count)
system.cpu.iew.dispLoadInsts                    68479                       # Number of dispatched load instructions (Count)
system.cpu.iew.dispStoreInsts                24929787                       # Number of dispatched store instructions (Count)
system.cpu.iew.dispNonSpecInsts                    25                       # Number of dispatched non-speculative instructions (Count)
system.cpu.iew.iqFullEvents                      1002                       # Number of times the IQ has become full, causing a stall (Count)
system.cpu.iew.lsqFullEvents                168552509                       # Number of times the LSQ has become full, causing a stall (Count)
system.cpu.iew.memOrderViolationEvents            339                       # Number of memory order violations (Count)
system.cpu.iew.predictedTakenIncorrect           1949                       # Number of branches that were predicted taken incorrectly (Count)
system.cpu.iew.predictedNotTakenIncorrect         3948                       # Number of branches that were predicted not taken incorrectly (Count)
system.cpu.iew.branchMispredicts                 5897                       # Number of branch mispredicts detected at execute (Count)
system.cpu.iew.instsToCommit                 91814295                       # Cumulative count of insts sent to commit (Count)
system.cpu.iew.writebackCount                91812314                       # Cumulative count of insts written-back (Count)
system.cpu.iew.producerInst                  48118038                       # Number of instructions producing a value (Count)
system.cpu.iew.consumerInst                  64975881                       # Number of instructions consuming a value (Count)
system.cpu.iew.wbRate                        0.162607                       # Insts written-back per cycle ((Count/Cycle))
system.cpu.iew.wbFanout                      0.740552                       # Average fanout of values written-back ((Count/Count))
system.cpu.interrupts.clk_domain.clock           8000                       # Clock period in ticks (Tick)
system.cpu.itb_walker_cache.blockedCycles::no_mshrs            0                       # number of cycles access was blocked (Cycle)
system.cpu.itb_walker_cache.blockedCycles::no_targets            0                       # number of cycles access was blocked (Cycle)
system.cpu.itb_walker_cache.blockedCauses::no_mshrs            0                       # number of times access was blocked (Count)
system.cpu.itb_walker_cache.blockedCauses::no_targets            0                       # number of times access was blocked (Count)
system.cpu.itb_walker_cache.avgBlocked::no_mshrs          nan                       # average number of cycles each access was blocked ((Cycle/Count))
system.cpu.itb_walker_cache.avgBlocked::no_targets          nan                       # average number of cycles each access was blocked ((Cycle/Count))
system.cpu.itb_walker_cache.replacements            0                       # number of replacements (Count)
system.cpu.itb_walker_cache.power_state.pwrStateResidencyTicks::UNDEFINED 282313751500                       # Cumulative time (in ticks) in various power states (Tick)
system.cpu.itb_walker_cache.tags.tagsInUse            0                       # Average ticks per tags in use ((Tick/Count))
system.cpu.itb_walker_cache.tags.totalRefs            0                       # Total number of references to valid blocks. (Count)
system.cpu.itb_walker_cache.tags.sampledRefs            0                       # Sample count of references to valid blocks. (Count)
system.cpu.itb_walker_cache.tags.avgRefs          nan                       # Average number of references to valid blocks. ((Count/Count))
system.cpu.itb_walker_cache.tags.warmupTick            0                       # The tick when the warmup percentage was hit. (Tick)
system.cpu.itb_walker_cache.tags.tagAccesses            0                       # Number of tag accesses (Count)
system.cpu.itb_walker_cache.tags.dataAccesses            0                       # Number of data accesses (Count)
system.cpu.itb_walker_cache.tags.power_state.pwrStateResidencyTicks::UNDEFINED 282313751500                       # Cumulative time (in ticks) in various power states (Tick)
system.cpu.lsq0.forwLoads                        2864                       # Number of loads that had data forwarded from stores (Count)
system.cpu.lsq0.squashedLoads                   26590                       # Number of loads squashed (Count)
system.cpu.lsq0.ignoredResponses                   50                       # Number of memory responses ignored because the instruction is squashed (Count)
system.cpu.lsq0.memOrderViolation                 339                       # Number of memory ordering violations (Count)
system.cpu.lsq0.squashedStores                   6696                       # Number of stores squashed (Count)
system.cpu.lsq0.rescheduledLoads                    2                       # Number of loads that were rescheduled (Count)
system.cpu.lsq0.blockedByCache                    275                       # Number of times an access to memory failed due to the cache being blocked (Count)
system.cpu.lsq0.loadToUse::samples              41889                       # Distribution of cycle latency between the first time a load is issued and its completion (Unspecified)
system.cpu.lsq0.loadToUse::mean             28.936021                       # Distribution of cycle latency between the first time a load is issued and its completion (Unspecified)
system.cpu.lsq0.loadToUse::stdev            58.349489                       # Distribution of cycle latency between the first time a load is issued and its completion (Unspecified)
system.cpu.lsq0.loadToUse::0-9                  32988     78.75%     78.75% # Distribution of cycle latency between the first time a load is issued and its completion (Unspecified)
system.cpu.lsq0.loadToUse::10-19                  355      0.85%     79.60% # Distribution of cycle latency between the first time a load is issued and its completion (Unspecified)
system.cpu.lsq0.loadToUse::20-29                  869      2.07%     81.67% # Distribution of cycle latency between the first time a load is issued and its completion (Unspecified)
system.cpu.lsq0.loadToUse::30-39                  215      0.51%     82.19% # Distribution of cycle latency between the first time a load is issued and its completion (Unspecified)
system.cpu.lsq0.loadToUse::40-49                   88      0.21%     82.40% # Distribution of cycle latency between the first time a load is issued and its completion (Unspecified)
system.cpu.lsq0.loadToUse::50-59                   76      0.18%     82.58% # Distribution of cycle latency between the first time a load is issued and its completion (Unspecified)
system.cpu.lsq0.loadToUse::60-69                  105      0.25%     82.83% # Distribution of cycle latency between the first time a load is issued and its completion (Unspecified)
system.cpu.lsq0.loadToUse::70-79                  187      0.45%     83.27% # Distribution of cycle latency between the first time a load is issued and its completion (Unspecified)
system.cpu.lsq0.loadToUse::80-89                  244      0.58%     83.86% # Distribution of cycle latency between the first time a load is issued and its completion (Unspecified)
system.cpu.lsq0.loadToUse::90-99                  192      0.46%     84.32% # Distribution of cycle latency between the first time a load is issued and its completion (Unspecified)
[...]
system.mem_ctrls.dram.perBankWrBursts::14       194489                       # Per bank write bursts (Count)
system.mem_ctrls.dram.perBankWrBursts::15       194435                       # Per bank write bursts (Count)
system.mem_ctrls.dram.totQLat             33938774000                       # Total ticks spent queuing (Tick)
system.mem_ctrls.dram.totBusLat           15588695000                       # Total ticks spent in databus transfers (Tick)
system.mem_ctrls.dram.totMemAccLat        92396380250                       # Total ticks spent from burst creation until serviced by the DRAM (Tick)
system.mem_ctrls.dram.avgQLat                10885.70                       # Average queueing delay per DRAM burst ((Tick/Count))
system.mem_ctrls.dram.avgBusLat               5000.00                       # Average bus latency per DRAM burst ((Tick/Count))
system.mem_ctrls.dram.avgMemAccLat           29635.70                       # Average memory access latency per DRAM burst ((Tick/Count))
system.mem_ctrls.dram.readRowHits             2772710                       # Number of row buffer hits during reads (Count)
system.mem_ctrls.dram.writeRowHits            2862736                       # Number of row buffer hits during writes (Count)
system.mem_ctrls.dram.readRowHitRate            88.93                       # Row buffer hit rate for reads (Ratio)
system.mem_ctrls.dram.writeRowHitRate           91.98                       # Row buffer hit rate for writes (Ratio)
system.mem_ctrls.dram.bytesPerActivate::samples       594503                       # Bytes accessed per row activation (Byte)
system.mem_ctrls.dram.bytesPerActivate::mean   670.669679                       # Bytes accessed per row activation (Byte)
system.mem_ctrls.dram.bytesPerActivate::gmean   532.372279                       # Bytes accessed per row activation (Byte)
system.mem_ctrls.dram.bytesPerActivate::stdev   344.036836                       # Bytes accessed per row activation (Byte)
system.mem_ctrls.dram.bytesPerActivate::0-127        37229      6.26%      6.26% # Bytes accessed per row activation (Byte)
system.mem_ctrls.dram.bytesPerActivate::128-255        47954      8.07%     14.33% # Bytes accessed per row activation (Byte)
system.mem_ctrls.dram.bytesPerActivate::256-383        69984     11.77%     26.10% # Bytes accessed per row activation (Byte)
system.mem_ctrls.dram.bytesPerActivate::384-511        50206      8.45%     34.55% # Bytes accessed per row activation (Byte)
system.mem_ctrls.dram.bytesPerActivate::512-639        35906      6.04%     40.58% # Bytes accessed per row activation (Byte)
system.mem_ctrls.dram.bytesPerActivate::640-767        63011     10.60%     51.18% # Bytes accessed per row activation (Byte)
system.mem_ctrls.dram.bytesPerActivate::768-895        34197      5.75%     56.94% # Bytes accessed per row activation (Byte)
system.mem_ctrls.dram.bytesPerActivate::896-1023        46768      7.87%     64.80% # Bytes accessed per row activation (Byte)
system.mem_ctrls.dram.bytesPerActivate::1024-1151       209248     35.20%    100.00% # Bytes accessed per row activation (Byte)
system.mem_ctrls.dram.bytesPerActivate::total       594503                       # Bytes accessed per row activation (Byte)
system.mem_ctrls.dram.bytesRead             199535296                       # Total bytes read (Byte)
system.mem_ctrls.dram.bytesWritten          199181696                       # Total bytes written (Byte)
system.mem_ctrls.dram.avgRdBW              706.785606                       # Average DRAM read bandwidth in MiBytes/s ((Byte/Second))
system.mem_ctrls.dram.avgWrBW              705.533099                       # Average DRAM write bandwidth in MiBytes/s ((Byte/Second))
system.mem_ctrls.dram.peakBW                 12800.00                       # Theoretical peak bandwidth in MiByte/s ((Byte/Second))
system.mem_ctrls.dram.busUtil                   11.03                       # Data bus utilization in percentage (Ratio)
system.mem_ctrls.dram.busUtilRead                5.52                       # Data bus utilization in percentage for reads (Ratio)
system.mem_ctrls.dram.busUtilWrite               5.51                       # Data bus utilization in percentage for writes (Ratio)
system.mem_ctrls.dram.pageHitRate               90.46                       # Row buffer hit rate, read and write combined (Ratio)
system.mem_ctrls.dram.power_state.pwrStateResidencyTicks::UNDEFINED 282313751500                       # Cumulative time (in ticks) in various power states (Tick)
system.mem_ctrls.dram.rank0.actEnergy      2122757700                       # Energy for activate commands per rank (pJ) (Joule)
system.mem_ctrls.dram.rank0.preEnergy      1128264885                       # Energy for precharge commands per rank (pJ) (Joule)
system.mem_ctrls.dram.rank0.readEnergy    11131067220                       # Energy for read commands per rank (pJ) (Joule)
system.mem_ctrls.dram.rank0.writeEnergy    8123343120                       # Energy for write commands per rank (pJ) (Joule)
system.mem_ctrls.dram.rank0.refreshEnergy 22285002480.000004                       # Energy for refresh commands per rank (pJ) (Joule)
system.mem_ctrls.dram.rank0.actBackEnergy 125894004180                       # Energy for active background per rank (pJ) (Joule)
system.mem_ctrls.dram.rank0.preBackEnergy   2392477440                       # Energy for precharge background per rank (pJ) (Joule)
system.mem_ctrls.dram.rank0.actPowerDownEnergy            0                       # Energy for active power-down per rank (pJ) (Joule)
system.mem_ctrls.dram.rank0.prePowerDownEnergy            0                       # Energy for precharge power-down per rank (pJ) (Joule)
system.mem_ctrls.dram.rank0.selfRefreshEnergy            0                       # Energy for self refresh per rank (pJ) (Joule)
system.mem_ctrls.dram.rank0.totalEnergy  173076917025                       # Total energy per rank (pJ) (Joule)
system.mem_ctrls.dram.rank0.averagePower   613.065839                       # Core power per rank (mW) (Watt)
system.mem_ctrls.dram.rank0.totalIdleTime            0                       # Total Idle time Per DRAM Rank (Tick)
system.mem_ctrls.dram.rank0.pwrStateTime::IDLE   4516510500                       # Time in different power states (Tick)
system.mem_ctrls.dram.rank0.pwrStateTime::REF   9426820000                       # Time in different power states (Tick)
system.mem_ctrls.dram.rank0.pwrStateTime::SREF            0                       # Time in different power states (Tick)
system.mem_ctrls.dram.rank0.pwrStateTime::PRE_PDN            0                       # Time in different power states (Tick)
system.mem_ctrls.dram.rank0.pwrStateTime::ACT 268370421000                       # Time in different power states (Tick)
system.mem_ctrls.dram.rank0.pwrStateTime::ACT_PDN            0                       # Time in different power states (Tick)
system.mem_ctrls.dram.rank1.actEnergy      2122022280                       # Energy for activate commands per rank (pJ) (Joule)
system.mem_ctrls.dram.rank1.preEnergy      1127874000                       # Energy for precharge commands per rank (pJ) (Joule)
system.mem_ctrls.dram.rank1.readEnergy    11129589240                       # Energy for read commands per rank (pJ) (Joule)
system.mem_ctrls.dram.rank1.writeEnergy    8122413960                       # Energy for write commands per rank (pJ) (Joule)
system.mem_ctrls.dram.rank1.refreshEnergy 22285002480.000004                       # Energy for refresh commands per rank (pJ) (Joule)
system.mem_ctrls.dram.rank1.actBackEnergy 125890887990                       # Energy for active background per rank (pJ) (Joule)
system.mem_ctrls.dram.rank1.preBackEnergy   2395101600                       # Energy for precharge background per rank (pJ) (Joule)
system.mem_ctrls.dram.rank1.actPowerDownEnergy            0                       # Energy for active power-down per rank (pJ) (Joule)
system.mem_ctrls.dram.rank1.prePowerDownEnergy            0                       # Energy for precharge power-down per rank (pJ) (Joule)
system.mem_ctrls.dram.rank1.selfRefreshEnergy            0                       # Energy for self refresh per rank (pJ) (Joule)
system.mem_ctrls.dram.rank1.totalEnergy  173072891550                       # Total energy per rank (pJ) (Joule)
system.mem_ctrls.dram.rank1.averagePower   613.051580                       # Core power per rank (mW) (Watt)
system.mem_ctrls.dram.rank1.totalIdleTime            0                       # Total Idle time Per DRAM Rank (Tick)
system.mem_ctrls.dram.rank1.pwrStateTime::IDLE   4523605500                       # Time in different power states (Tick)
system.mem_ctrls.dram.rank1.pwrStateTime::REF   9426820000                       # Time in different power states (Tick)
system.mem_ctrls.dram.rank1.pwrStateTime::SREF            0                       # Time in different power states (Tick)
system.mem_ctrls.dram.rank1.pwrStateTime::PRE_PDN            0                       # Time in different power states (Tick)
system.mem_ctrls.dram.rank1.pwrStateTime::ACT 268363326000                       # Time in different power states (Tick)
system.mem_ctrls.dram.rank1.pwrStateTime::ACT_PDN            0                       # Time in different power states (Tick)
system.mem_ctrls.power_state.pwrStateResidencyTicks::UNDEFINED 282313751500                       # Cumulative time (in ticks) in various power states (Tick)
system.membus.transDist::ReadResp                3520                       # Transaction distribution (Count)
system.membus.transDist::WritebackDirty       3112246                       # Transaction distribution (Count)
system.membus.transDist::CleanEvict              3199                       # Transaction distribution (Count)
system.membus.transDist::ReadExReq            3114229                       # Transaction distribution (Count)
system.membus.transDist::ReadExResp           3114229                       # Transaction distribution (Count)
system.membus.transDist::ReadSharedReq           3520                       # Transaction distribution (Count)
system.membus.pktCount_system.l2.mem_side_port::system.mem_ctrls.port      9350943                       # Packet count per connected requestor and responder (Count)
system.membus.pktCount_system.l2.mem_side_port::total      9350943                       # Packet count per connected requestor and responder (Count)
system.membus.pktCount::total                 9350943                       # Packet count per connected requestor and responder (Count)
system.membus.pktSize_system.l2.mem_side_port::system.mem_ctrls.port    398719680                       # Cumulative packet size per connected requestor and responder (Byte)
system.membus.pktSize_system.l2.mem_side_port::total    398719680                       # Cumulative packet size per connected requestor and responder (Byte)
system.membus.pktSize::total                398719680                       # Cumulative packet size per connected requestor and responder (Byte)
system.membus.snoops                                0                       # Total snoops (Count)
system.membus.snoopTraffic                          0                       # Total snoop traffic (Byte)
system.membus.snoopFanout::samples            3117749                       # Request fanout histogram (Count)
system.membus.snoopFanout::mean                     0                       # Request fanout histogram (Count)
system.membus.snoopFanout::stdev                    0                       # Request fanout histogram (Count)
system.membus.snoopFanout::underflows               0      0.00%      0.00% # Request fanout histogram (Count)
system.membus.snoopFanout::0                  3117749    100.00%    100.00% # Request fanout histogram (Count)
system.membus.snoopFanout::1                        0      0.00%    100.00% # Request fanout histogram (Count)
system.membus.snoopFanout::overflows                0      0.00%    100.00% # Request fanout histogram (Count)
system.membus.snoopFanout::min_value                0                       # Request fanout histogram (Count)
system.membus.snoopFanout::max_value                0                       # Request fanout histogram (Count)
system.membus.snoopFanout::total              3117749                       # Request fanout histogram (Count)
system.membus.power_state.pwrStateResidencyTicks::UNDEFINED 282313751500                       # Cumulative time (in ticks) in various power states (Tick)
system.membus.reqLayer2.occupancy         19720938500                       # Layer occupancy (ticks) (Tick)
system.membus.reqLayer2.utilization               0.1                       # Layer utilization (Ratio)
system.membus.respLayer1.occupancy        16468696250                       # Layer occupancy (ticks) (Tick)
system.membus.respLayer1.utilization              0.1                       # Layer utilization (Ratio)
system.membus.snoop_filter.totRequests        6233194                       # Total number of requests made to the snoop filter. (Count)
system.membus.snoop_filter.hitSingleRequests      3115445                       # Number of requests hitting in the snoop filter with a single holder of the requested data. (Count)
system.membus.snoop_filter.hitMultiRequests            0                       # Number of requests hitting in the snoop filter with multiple (>1) holders of the requested data. (Count)
system.membus.snoop_filter.totSnoops                0                       # Total number of snoops made to the snoop filter. (Count)
system.membus.snoop_filter.hitSingleSnoops            0                       # Number of snoops hitting in the snoop filter with a single holder of the requested data. (Count)
system.membus.snoop_filter.hitMultiSnoops            0                       # Number of snoops hitting in the snoop filter with multiple (>1) holders of the requested data. (Count)
system.tol2bus.transDist::ReadResp               4637                       # Transaction distribution (Count)
system.tol2bus.transDist::WritebackDirty      6226654                       # Transaction distribution (Count)
system.tol2bus.transDist::WritebackClean         1516                       # Transaction distribution (Count)
system.tol2bus.transDist::CleanEvict             6240                       # Transaction distribution (Count)
system.tol2bus.transDist::UpgradeReq                1                       # Transaction distribution (Count)
system.tol2bus.transDist::UpgradeResp               1                       # Transaction distribution (Count)
system.tol2bus.transDist::ReadExReq           3114292                       # Transaction distribution (Count)
system.tol2bus.transDist::ReadExResp          3114292                       # Transaction distribution (Count)
system.tol2bus.transDist::ReadCleanReq           1773                       # Transaction distribution (Count)
system.tol2bus.transDist::ReadSharedReq          2864                       # Transaction distribution (Count)
system.tol2bus.pktCount_system.cpu.icache.mem_side_port::system.l2.cpu_side_port         5060                       # Packet count per connected requestor and responder (Count)
system.tol2bus.pktCount_system.cpu.dcache.mem_side_port::system.l2.cpu_side_port      9351214                       # Packet count per connected requestor and responder (Count)
system.tol2bus.pktCount::total                9356274                       # Packet count per connected requestor and responder (Count)
system.tol2bus.pktSize_system.cpu.icache.mem_side_port::system.l2.cpu_side_port       210368                       # Cumulative packet size per connected requestor and responder (Byte)
system.tol2bus.pktSize_system.cpu.dcache.mem_side_port::system.l2.cpu_side_port    398820096                       # Cumulative packet size per connected requestor and responder (Byte)
system.tol2bus.pktSize::total               399030464                       # Cumulative packet size per connected requestor and responder (Byte)
system.tol2bus.snoops                         3115996                       # Total snoops (Count)
system.tol2bus.snoopTraffic                 199183872                       # Total snoop traffic (Byte)
system.tol2bus.snoopFanout::samples           6234924                       # Request fanout histogram (Count)
system.tol2bus.snoopFanout::mean             0.000090                       # Request fanout histogram (Count)
system.tol2bus.snoopFanout::stdev            0.009468                       # Request fanout histogram (Count)
system.tol2bus.snoopFanout::underflows              0      0.00%      0.00% # Request fanout histogram (Count)
system.tol2bus.snoopFanout::0                 6234365     99.99%     99.99% # Request fanout histogram (Count)
system.tol2bus.snoopFanout::1                     559      0.01%    100.00% # Request fanout histogram (Count)
system.tol2bus.snoopFanout::2                       0      0.00%    100.00% # Request fanout histogram (Count)
system.tol2bus.snoopFanout::3                       0      0.00%    100.00% # Request fanout histogram (Count)
system.tol2bus.snoopFanout::4                       0      0.00%    100.00% # Request fanout histogram (Count)
system.tol2bus.snoopFanout::overflows               0      0.00%    100.00% # Request fanout histogram (Count)
system.tol2bus.snoopFanout::min_value               0                       # Request fanout histogram (Count)
system.tol2bus.snoopFanout::max_value               1                       # Request fanout histogram (Count)
system.tol2bus.snoopFanout::total             6234924                       # Request fanout histogram (Count)
system.tol2bus.power_state.pwrStateResidencyTicks::UNDEFINED 282313751500                       # Cumulative time (in ticks) in various power states (Tick)
system.tol2bus.reqLayer0.occupancy         6234597000                       # Layer occupancy (ticks) (Tick)
system.tol2bus.reqLayer0.utilization              0.0                       # Layer utilization (Ratio)
system.tol2bus.respLayer0.occupancy           2660498                       # Layer occupancy (ticks) (Tick)
system.tol2bus.respLayer0.utilization             0.0                       # Layer utilization (Ratio)
system.tol2bus.respLayer1.occupancy        4675734500                       # Layer occupancy (ticks) (Tick)
system.tol2bus.respLayer1.utilization             0.0                       # Layer utilization (Ratio)
system.tol2bus.snoop_filter.totRequests       6237346                       # Total number of requests made to the snoop filter. (Count)
system.tol2bus.snoop_filter.hitSingleRequests      3118416                       # Number of requests hitting in the snoop filter with a single holder of the requested data. (Count)
system.tol2bus.snoop_filter.hitMultiRequests            5                       # Number of requests hitting in the snoop filter with multiple (>1) holders of the requested data. (Count)
system.tol2bus.snoop_filter.totSnoops             554                       # Total number of snoops made to the snoop filter. (Count)
system.tol2bus.snoop_filter.hitSingleSnoops          554                       # Number of snoops hitting in the snoop filter with a single holder of the requested data. (Count)
system.tol2bus.snoop_filter.hitMultiSnoops            0                       # Number of snoops hitting in the snoop filter with multiple (>1) holders of the requested data. (Count)
system.voltage_domain.voltage                       1                       # Voltage in Volts (Volt)
system.workload.inst.arm                            0                       # number of arm instructions executed (Count)
system.workload.inst.quiesce                        0                       # number of quiesce instructions executed (Count)

---------- End Simulation Statistics   ----------
